Curveplot
LS-DYNA keyword deck by LS-PrePost                          
Time
Pressure
Defined Connection
Pressure @ 5 #pts=12001
* Minval=     6.5447136719e+04 at time=         0.0067899339
* Maxval=     8.8690018750e+05 at time=         0.0016998891
    0.0000000000e+00    1.0120000000e+05
    9.9485332612e-06    1.0120000000e+05
    1.9897413949e-05    1.0120000000e+05
    2.9971839467e-05    1.0120000000e+05
    3.9938622649e-05    1.0120000000e+05
    4.9981616030e-05    1.0120000000e+05
    5.9945305111e-05    1.0120000000e+05
    6.9949353929e-05    1.0120000000e+05
    7.9942445154e-05    1.0120000000e+05
    8.9943037892e-05    1.0120000000e+05
    9.9957884231e-05    1.0120000000e+05
    1.0997790378e-04    1.0120000000e+05
    1.1998794071e-04    1.0120000000e+05
    1.2997804151e-04    1.0120000000e+05
    1.3993807079e-04    1.0120000000e+05
    1.4993383957e-04    1.0120000000e+05
    1.5995927970e-04    1.0120000000e+05
    1.6992884048e-04    1.0120000000e+05
    1.7999148986e-04    1.0120000000e+05
    1.8998234009e-04    1.0120000000e+05
    1.9997218624e-04    1.0120000000e+05
    2.0995418890e-04    1.0120000000e+05
    2.1992121765e-04    1.0120000000e+05
    2.2995234758e-04    1.0120000000e+05
    2.3995611991e-04    1.0120000000e+05
    2.4992527324e-04    1.0120000000e+05
    2.5994263706e-04    1.0120000000e+05
    2.6991250343e-04    1.0120000000e+05
    2.7991962270e-04    1.0120000000e+05
    2.8995951288e-04    1.0120000000e+05
    2.9993188218e-04    1.0120000000e+05
    3.0991752283e-04    1.0120000000e+05
    3.1990546267e-04    1.0120000000e+05
    3.2999020186e-04    1.0120000000e+05
    3.3997619175e-04    1.0120000000e+05
    3.4996031900e-04    1.0120000000e+05
    3.5993935307e-04    1.0120000000e+05
    3.6990948138e-04    1.0120000000e+05
    3.7997373147e-04    1.0120000000e+05
    3.8992764894e-04    1.0120000000e+05
    3.9997338899e-04    1.0120000000e+05
    4.0990070556e-04    1.0120000000e+05
    4.1991999024e-04    1.0120000000e+05
    4.2992425733e-04    1.0120000000e+05
    4.3991155690e-04    1.0120000000e+05
    4.4998928206e-04    1.0120000000e+05
    4.5993711683e-04    1.0120000000e+05
    4.6997575555e-04    1.0120000000e+05
    4.7999282833e-04    1.0120000000e+05
    4.8998661805e-04    1.0120000000e+05
    4.9995526206e-04    1.0120000000e+05
    5.0989480224e-04    1.0120000000e+05
    5.1992328372e-04    1.0120000000e+05
    5.2992318524e-04    1.0120000000e+05
    5.3989270236e-04    1.0120000000e+05
    5.4994859966e-04    1.0120000000e+05
    5.5996800074e-04    1.0120000000e+05
    5.6995765772e-04    1.0120000000e+05
    5.7991151698e-04    1.0120000000e+05
    5.8995059226e-04    1.0120000000e+05
    5.9995212359e-04    1.0120000000e+05
    6.0991389910e-04    1.0120000000e+05
    6.1995862052e-04    1.0120000000e+05
    6.2996416818e-04    1.0120000000e+05
    6.3992652576e-04    1.0120000000e+05
    6.4997299341e-04    1.0120000000e+05
    6.5997440834e-04    1.0120000000e+05
    6.6992855864e-04    1.0120000000e+05
    6.7996338475e-04    1.0120000000e+05
    6.8995176116e-04    1.0120000000e+05
    6.9988879841e-04    1.0120000000e+05
    7.0990831591e-04    1.0120000000e+05
    7.1987445699e-04    1.0120000000e+05
    7.2992313653e-04    1.0120000000e+05
    7.3991622776e-04    1.0120000000e+05
    7.4998883065e-04    1.0120000000e+05
    7.5986486627e-04    1.0120000000e+05
    7.6996401185e-04    1.0120000000e+05
    7.7985884855e-04    1.0120000000e+05
    7.8997900710e-04    1.0120000000e+05
    7.9989008373e-04    1.0120000000e+05
    8.0988107948e-04    1.0120000000e+05
    8.1995321671e-04    1.0120000000e+05
    8.2995381672e-04    1.0120000000e+05
    8.3988776896e-04    1.0120000000e+05
    8.4990105825e-04    1.0120000000e+05
    8.5999490693e-04    1.0120000000e+05
    8.6986075621e-04    1.0120000000e+05
    8.7996013463e-04    1.0120000000e+05
    8.8998355204e-04    1.0120000000e+05
    8.9992809808e-04    1.0120000000e+05
    9.0995075880e-04    1.0120000000e+05
    9.1989163775e-04    1.0120000000e+05
    9.2990556732e-04    1.0120000000e+05
    9.3983899569e-04    1.0120000000e+05
    9.4984943280e-04    1.0120000000e+05
    9.5993775176e-04    1.0120000000e+05
    9.6993771149e-04    1.0120000000e+05
    9.7984622698e-04    1.0120000000e+05
    9.8983035423e-04    1.0120000000e+05
    9.9989073351e-04    1.0120000000e+05
    1.0098558851e-03    1.0120000000e+05
    1.0198967066e-03    1.0120000000e+05
    1.0298385751e-03    1.0120000000e+05
    1.0398552986e-03    1.0120000000e+05
    1.0499474593e-03    1.0120000000e+05
    1.0599350790e-03    1.0120000000e+05
    1.0699944105e-03    1.0120000000e+05
    1.0799522279e-03    1.0120000000e+05
    1.0899838526e-03    1.0120000000e+05
    1.0999054648e-03    1.0120000000e+05
    1.1098999530e-03    1.0120000000e+05
    1.1199677829e-03    1.0120000000e+05
    1.1299217585e-03    1.0120000000e+05
    1.1399481446e-03    1.0120000000e+05
    1.1498567183e-03    1.0120000000e+05
    1.1598366546e-03    1.0120000000e+05
    1.1698888848e-03    1.0120000000e+05
    1.1798188789e-03    1.0120000000e+05
    1.1898203520e-03    1.0120000000e+05
    1.1998935370e-03    1.0120000000e+05
    1.2098404113e-03    1.0120000000e+05
    1.2198579498e-03    1.0120000000e+05
    1.2299475493e-03    1.0120000000e+05
    1.2399060652e-03    1.0120000000e+05
    1.2499352451e-03    1.0120000000e+05
    1.2598292669e-03    1.0120000000e+05
    1.2697930215e-03    1.0120000000e+05
    1.2798182433e-03    1.0120000000e+05
    1.2899172725e-03    1.0120000000e+05
    1.2998774182e-03    1.0120000000e+05
    1.3099027565e-03    1.0120000000e+05
    1.3197899098e-03    1.0120000000e+05
    1.3299667044e-03    1.0120000000e+05
    1.3399978634e-03    1.0120000000e+05
    1.3498794287e-03    1.0120000000e+05
    1.3598297955e-03    1.0120000000e+05
    1.3698496623e-03    1.0120000000e+05
    1.3799401931e-03    1.0120000000e+05
    1.3898757752e-03    1.0120000000e+05
    1.3998798095e-03    1.0120000000e+05
    1.4099548571e-03    1.0120000000e+05
    1.4198686695e-03    1.0120000000e+05
    1.4298526803e-03    1.0120000000e+05
    1.4399051433e-03    1.0120000000e+05
    1.4497917145e-03    1.0120000000e+05
    1.4599850401e-03    1.0120000000e+05
    1.4697721926e-03    1.0120000000e+05
    1.4798673801e-03    1.0120000000e+05
    1.4897905057e-03    1.0120000000e+05
    1.4997820836e-03    1.0120000000e+05
    1.5098446747e-03    1.0120000000e+05
    1.5199780464e-03    1.0120000000e+05
    1.5299323713e-03    1.0120000000e+05
    1.5399572439e-03    1.0120000000e+05
    1.5497982968e-03    1.0120000000e+05
    1.5599620529e-03    1.0120000000e+05
    1.5699417563e-03    1.0120000000e+05
    1.5799908433e-03    1.0120000000e+05
    1.5898502897e-03    1.0120000000e+05
    1.5997776063e-03    1.0120000000e+05
    1.6097739572e-03    1.0120000000e+05
    1.6198401572e-03    1.0120000000e+05
    1.6299750423e-03    1.0120000000e+05
    1.6399052693e-03    1.0120000000e+05
    1.6499076737e-03    1.0120000000e+05
    1.6599838855e-03    1.0120000000e+05
    1.6698495019e-03    1.0120000000e+05
    1.6797909047e-03    1.0120000000e+05
    1.6898047179e-03    1.0120000000e+05
    1.6998890787e-03    8.8690018750e+05
    1.7097624950e-03    8.6399643750e+05
    1.7199896974e-03    8.4103118750e+05
    1.7297166632e-03    8.1998931250e+05
    1.7397997435e-03    7.9892656250e+05
    1.7499547685e-03    7.7850281250e+05
    1.7598900013e-03    7.5921818750e+05
    1.7698953161e-03    7.4051306250e+05
    1.7799717607e-03    7.2233256250e+05
    1.7898213118e-03    7.0517943750e+05
    1.7997398973e-03    6.8850368750e+05
    1.8097290304e-03    6.7229725000e+05
    1.8197894096e-03    6.5654212500e+05
    1.8299225485e-03    6.4122118750e+05
    1.8398192478e-03    6.2676518750e+05
    1.8497862620e-03    6.1269662500e+05
    1.8598249881e-03    5.9900506250e+05
    1.8699365901e-03    5.8568181250e+05
    1.8798026722e-03    5.7311543750e+05
    1.8897395348e-03    5.6087143750e+05
    1.8997479929e-03    5.4895343750e+05
    1.9098285120e-03    5.3733412500e+05
    1.9199779490e-03    5.2600768750e+05
    1.9298777916e-03    5.1533703125e+05
    1.9398498116e-03    5.0492315625e+05
    1.9498947076e-03    4.9476112500e+05
    1.9596756902e-03    4.8517662500e+05
    1.9698683172e-03    4.7549740625e+05
    1.9797941204e-03    4.6636787500e+05
    1.9897932652e-03    4.5745384375e+05
    1.9998666830e-03    4.4874587500e+05
    2.0096646622e-03    4.4053234375e+05
    2.0198884886e-03    4.3221771875e+05
    2.0298338495e-03    4.2437621875e+05
    2.0398539491e-03    4.1670903125e+05
    2.0499499515e-03    4.0920962500e+05
    2.0597584080e-03    4.0213896875e+05
    2.0696397405e-03    3.9521821875e+05
    2.0799657796e-03    3.8819534375e+05
    2.0899944939e-03    3.8157253125e+05
    2.0997303072e-03    3.7532921875e+05
    2.1099175792e-03    3.6897337500e+05
    2.1198033355e-03    3.6297790625e+05
    2.1297647618e-03    3.5710809375e+05
    2.1398032550e-03    3.5135440625e+05
    2.1499202121e-03    3.4570931250e+05
    2.1597237792e-03    3.4039225000e+05
    2.1699995268e-03    3.3496650000e+05
    2.1799583919e-03    3.2985396875e+05
    2.1899959538e-03    3.2483437500e+05
    2.1997073200e-03    3.2010178125e+05
    2.2099032067e-03    3.1526740625e+05
    2.2197652142e-03    3.1071437500e+05
    2.2297098767e-03    3.0623512500e+05
    2.2397346329e-03    3.0183612500e+05
    2.2498404142e-03    2.9751778125e+05
    2.2596037015e-03    2.9344912500e+05
    2.2698743269e-03    2.8927718750e+05
    2.2797931451e-03    2.8534881250e+05
    2.2897706367e-03    2.8149059375e+05
    2.2998000495e-03    2.7770734375e+05
    2.3098741658e-03    2.7400050000e+05
    2.3199785501e-03    2.7037212500e+05
    2.3296757136e-03    2.6697096875e+05
    2.3398362100e-03    2.6349371875e+05
    2.3495764472e-03    2.6023792188e+05
    2.3597758263e-03    2.5690723438e+05
    2.3699728772e-03    2.5365500000e+05
    2.3797661997e-03    2.5060762500e+05
    2.3899488151e-03    2.4749892188e+05
    2.3997386452e-03    2.4458837500e+05
    2.4099508300e-03    2.4161729688e+05
    2.4196910672e-03    2.3884025000e+05
    2.4298999924e-03    2.3600051562e+05
    2.4396735243e-03    2.3334643750e+05
    2.4498626590e-03    2.3063195312e+05
    2.4596182629e-03    2.2809079688e+05
    2.4698025081e-03    2.2549495312e+05
    2.4799893145e-03    2.2295039062e+05
    2.4897300173e-03    2.2057332812e+05
    2.4998870213e-03    2.1814714062e+05
    2.5096382014e-03    2.1586792188e+05
    2.5198075455e-03    2.1353612500e+05
    2.5296090171e-03    2.1133735938e+05
    2.5398461148e-03    2.0908682812e+05
    2.5495833252e-03    2.0699189062e+05
    2.5597233325e-03    2.0484987500e+05
    2.5698831305e-03    2.0275075000e+05
    2.5796776172e-03    2.0076792188e+05
    2.5898835156e-03    1.9874000000e+05
    2.5996793993e-03    1.9683267188e+05
    2.6099430397e-03    1.9487362500e+05
    2.6198043488e-03    1.9303337500e+05
    2.6296412107e-03    1.9122456250e+05
    2.6399574708e-03    1.8936982812e+05
    2.6498318184e-03    1.8762373438e+05
    2.6597254910e-03    1.8590845312e+05
    2.6696317364e-03    1.8422342188e+05
    2.6795496233e-03    1.8256832812e+05
    2.6899301447e-03    1.8086825000e+05
    2.6998531539e-03    1.7927279688e+05
    2.7097754646e-03    1.7770592188e+05
    2.7196917217e-03    1.7616935938e+05
    2.7296049520e-03    1.7466145312e+05
    2.7399293613e-03    1.7311562500e+05
    2.7498030104e-03    1.7166775000e+05
    2.7596477885e-03    1.7024714062e+05
    2.7698979247e-03    1.6879492188e+05
    2.7796674985e-03    1.6743634375e+05
    2.7898340486e-03    1.6604685938e+05
    2.7999461163e-03    1.6468760938e+05
    2.8099908959e-03    1.6336026562e+05
    2.8199681547e-03    1.6206526562e+05
    2.8298792895e-03    1.6080193750e+05
    2.8397247661e-03    1.5956773438e+05
    2.8499281034e-03    1.5830914062e+05
    2.8596410993e-03    1.5713067188e+05
    2.8697107919e-03    1.5592932812e+05
    2.8797129635e-03    1.5475610938e+05
    2.8896480799e-03    1.5360915625e+05
    2.8999270871e-03    1.5244173438e+05
    2.9097285587e-03    1.5134692188e+05
    2.9198678676e-03    1.5023273438e+05
    2.9299380258e-03    1.4914445312e+05
    2.9399425257e-03    1.4808073438e+05
    2.9498795047e-03    1.4704087500e+05
    2.9597501270e-03    1.4602453125e+05
    2.9699455481e-03    1.4499150000e+05
    2.9796822928e-03    1.4402045312e+05
    2.9897384811e-03    1.4303285938e+05
    2.9997266829e-03    1.4206709375e+05
    3.0096473638e-03    1.4112189062e+05
    3.0198786408e-03    1.4016200000e+05
    3.0296626501e-03    1.3925846875e+05
    3.0397532973e-03    1.3833965625e+05
    3.0497731641e-03    1.3744032812e+05
    3.0597234145e-03    1.3656606250e+05
    3.0699688941e-03    1.3567823438e+05
    3.0797780491e-03    1.3482971875e+05
    3.0898791738e-03    1.3397992188e+05
    3.0999074224e-03    1.3316775000e+05
    3.1098637264e-03    1.3234178125e+05
    3.1197490171e-03    1.3150664062e+05
    3.1299125403e-03    1.3071688281e+05
    3.1396544073e-03    1.3001440625e+05
    3.1496705487e-03    1.2922016406e+05
    3.1599537469e-03    1.2834893750e+05
    3.1698192470e-03    1.2759678906e+05
    3.1799480785e-03    1.2695291406e+05
    3.1899991445e-03    1.2628866406e+05
    3.1999729108e-03    1.2550268750e+05
    3.2098698430e-03    1.2470439844e+05
    3.2196904067e-03    1.2397864844e+05
    3.2297580037e-03    1.2332267969e+05
    3.2397450414e-03    1.2272428125e+05
    3.2499700319e-03    1.2209327344e+05
    3.2597943209e-03    1.2144563281e+05
    3.2698519062e-03    1.2076147656e+05
    3.2798252068e-03    1.2007540625e+05
    3.2897144556e-03    1.1940187500e+05
    3.2998244278e-03    1.1874415625e+05
    3.3098454587e-03    1.1813846094e+05
    3.3197777811e-03    1.1756459375e+05
    3.3299189527e-03    1.1697278906e+05
    3.3399662934e-03    1.1637671094e+05
    3.3499200363e-03    1.1578996094e+05
    3.3597801812e-03    1.1521941406e+05
    3.3698326442e-03    1.1464564844e+05
    3.3797859214e-03    1.1408186719e+05
    3.3899205737e-03    1.1352002344e+05
    3.3999504521e-03    1.1297185156e+05
    3.4098755568e-03    1.1243891406e+05
    3.4199664369e-03    1.1190111719e+05
    3.4299460240e-03    1.1137821094e+05
    3.4398138523e-03    1.1086608594e+05
    3.4498318564e-03    1.1035444531e+05
    3.4599902574e-03    1.0984164844e+05
    3.4697672818e-03    1.0934978906e+05
    3.4799294081e-03    1.0883728906e+05
    3.4899574239e-03    1.0832585156e+05
    3.4998506308e-03    1.0782247656e+05
    3.5098497756e-03    1.0732632031e+05
    3.5199436825e-03    1.0684996875e+05
    3.5298841540e-03    1.0641178906e+05
    3.5399007611e-03    1.0598903906e+05
    3.5499802325e-03    1.0555215625e+05
    3.5598843824e-03    1.0509891406e+05
    3.5698299762e-03    1.0463859375e+05
    3.5798002500e-03    1.0418843750e+05
    3.5899886861e-03    1.0373846094e+05
    3.5999515094e-03    1.0330002344e+05
    3.6098831333e-03    1.0287485156e+05
    3.6199556198e-03    1.0247166406e+05
    3.6299391650e-03    1.0209328906e+05
    3.6399869714e-03    1.0169665625e+05
    3.6498715635e-03    1.0127221875e+05
    3.6598921288e-03    1.0083522656e+05
    3.6699550692e-03    1.0042878125e+05
    3.6799462978e-03    1.0006622656e+05
    3.6899989937e-03    9.9713617188e+04
    3.6999599542e-03    9.9338710938e+04
    3.7099719048e-03    9.8935929688e+04
    3.7199351937e-03    9.8539125000e+04
    3.7298670504e-03    9.8170882812e+04
    3.7399665453e-03    9.7828289062e+04
    3.7499272730e-03    9.7501164062e+04
    3.7599389907e-03    9.7145179688e+04
    3.7699027453e-03    9.6761023438e+04
    3.7799228448e-03    9.6389445312e+04
    3.7899096496e-03    9.6066398438e+04
    3.7999076303e-03    9.5767742188e+04
    3.8099072408e-03    9.5435656250e+04
    3.8198642433e-03    9.5069507812e+04
    3.8299257867e-03    9.4716148438e+04
    3.8399251644e-03    9.4412867188e+04
    3.8499208167e-03    9.4128789062e+04
    3.8599653635e-03    9.3808312500e+04
    3.8699551951e-03    9.3459468750e+04
    3.8798421156e-03    9.3137414062e+04
    3.8898454513e-03    9.2858718750e+04
    3.8999016397e-03    9.2584226562e+04
    3.9098639973e-03    9.2265625000e+04
    3.9198808372e-03    9.1933992188e+04
    3.9298059419e-03    9.1648351562e+04
    3.9399713278e-03    9.1391023438e+04
    3.9498256519e-03    9.1112562500e+04
    3.9599225856e-03    9.0791601562e+04
    3.9698914625e-03    9.0498757812e+04
    3.9799092337e-03    9.0248039062e+04
    3.9899847470e-03    8.9991843750e+04
    3.9999126457e-03    8.9698085938e+04
    4.0098791942e-03    8.9407031250e+04
    4.0199141949e-03    8.9156789062e+04
    4.0299738757e-03    8.8917218750e+04
    4.0398966521e-03    8.8646218750e+04
    4.0498375893e-03    8.8364226562e+04
    4.0598507039e-03    8.8117570312e+04
    4.0698819794e-03    8.7888898438e+04
    4.0799658746e-03    8.7631460938e+04
    4.0898812003e-03    8.7363171875e+04
    4.0998305194e-03    8.7123523438e+04
    4.1098399088e-03    8.6901875000e+04
    4.1198469698e-03    8.6660585938e+04
    4.1299350560e-03    8.6401875000e+04
    4.1398028843e-03    8.6171960938e+04
    4.1499515064e-03    8.5954851562e+04
    4.1599217802e-03    8.5724164062e+04
    4.1698901914e-03    8.5481460938e+04
    4.1799466126e-03    8.5254796875e+04
    4.1899732314e-03    8.5041945312e+04
    4.1998825036e-03    8.4822601562e+04
    4.2099915445e-03    8.4596734375e+04
    4.2199166492e-03    8.4389585938e+04
    4.2299153283e-03    8.4183835938e+04
    4.2398725636e-03    8.3965007812e+04
    4.2499457486e-03    8.3742281250e+04
    4.2599709705e-03    8.3538632812e+04
    4.2698290199e-03    8.3343640625e+04
    4.2799655348e-03    8.3134593750e+04
    4.2898589745e-03    8.2931062500e+04
    4.2998334393e-03    8.2734820312e+04
    4.3097902089e-03    8.2542851562e+04
    4.3198019266e-03    8.2344718750e+04
    4.3298569508e-03    8.2149937500e+04
    4.3399115093e-03    8.1961726562e+04
    4.3497858569e-03    8.1775960938e+04
    4.3599097989e-03    8.1583148438e+04
    4.3698297814e-03    8.1394210938e+04
    4.3797870167e-03    8.1208523438e+04
    4.3899901211e-03    8.1017515625e+04
    4.3999878690e-03    8.0837078125e+04
    4.4097774662e-03    8.0668125000e+04
    4.4198269024e-03    8.0499429688e+04
    4.4299024157e-03    8.0324843750e+04
    4.4399960898e-03    8.0145023438e+04
    4.4498746283e-03    7.9968734375e+04
    4.4597736560e-03    7.9797882812e+04
    4.4699241407e-03    7.9630539062e+04
    4.4798627496e-03    7.9471679688e+04
    4.4898199849e-03    7.9310367188e+04
    4.4997921214e-03    7.9143640625e+04
    4.5097800903e-03    7.8975960938e+04
    4.5197848231e-03    7.8814828125e+04
    4.5298025943e-03    7.8660640625e+04
    4.5398320071e-03    7.8507718750e+04
    4.5498795807e-03    7.8349593750e+04
    4.5599397272e-03    7.8189296875e+04
    4.5697679743e-03    7.8036359375e+04
    4.5798467472e-03    7.7887906250e+04
    4.5899352990e-03    7.7742070312e+04
    4.5997905545e-03    7.7597062500e+04
    4.6098926105e-03    7.7444257812e+04
    4.6197609045e-03    7.7298351562e+04
    4.6298741363e-03    7.7156007812e+04
    4.6399896964e-03    7.7017656250e+04
    4.6498654410e-03    7.6878765625e+04
    4.6599814668e-03    7.6730898438e+04
    4.6698576771e-03    7.6588140625e+04
    4.6799746342e-03    7.6450476562e+04
    4.6898508444e-03    7.6324882812e+04
    4.6999682672e-03    7.6196554688e+04
    4.7098444775e-03    7.6064734375e+04
    4.7199609689e-03    7.5923421875e+04
    4.7298367135e-03    7.5786179688e+04
    4.7399527393e-03    7.5652921875e+04
    4.7498275526e-03    7.5530546875e+04
    4.7599431127e-03    7.5409507812e+04
    4.7698169947e-03    7.5290984375e+04
    4.7799311578e-03    7.5167351562e+04
    4.7898041084e-03    7.5045570312e+04
    4.7999173403e-03    7.4921664062e+04
    4.8097888939e-03    7.4802648438e+04
    4.8198997974e-03    7.4681945312e+04
    4.8297690228e-03    7.4563765625e+04
    4.8398775980e-03    7.4442234375e+04
    4.8499857076e-03    7.4322117188e+04
    4.8598521389e-03    7.4208015625e+04
    4.8699565232e-03    7.4094226562e+04
    4.8798229545e-03    7.3984210938e+04
    4.8899310641e-03    7.3871226562e+04
    4.8998016864e-03    7.3761093750e+04
    4.9099195749e-03    7.3649898438e+04
    4.9198041670e-03    7.3543523438e+04
    4.9299355596e-03    7.3435812500e+04
    4.9398331903e-03    7.3330687500e+04
    4.9499818124e-03    7.3223203125e+04
    4.9598962069e-03    7.3120039062e+04
    4.9698157236e-03    7.3019898438e+04
    4.9799857661e-03    7.2919828125e+04
    4.9899229780e-03    7.2822437500e+04
    4.9998676404e-03    7.2723601562e+04
    5.0098188221e-03    7.2623664062e+04
    5.0197811797e-03    7.2524617188e+04
    5.0299945287e-03    7.2425906250e+04
    5.0399694592e-03    7.2332078125e+04
    5.0499532372e-03    7.2238734375e+04
    5.0599463284e-03    7.2143929688e+04
    5.0699440762e-03    7.2047398438e+04
    5.0799483433e-03    7.1950851562e+04
    5.0899637863e-03    7.1856828125e+04
    5.0999843515e-03    7.1767164062e+04
    5.1097651012e-03    7.1683375000e+04
    5.1197982393e-03    7.1598390625e+04
    5.1298406906e-03    7.1511312500e+04
    5.1398840733e-03    7.1421664062e+04
    5.1499377005e-03    7.1331687500e+04
    5.1599992439e-03    7.1244539062e+04
    5.1698237658e-03    7.1163664062e+04
    5.1798922941e-03    7.1084117188e+04
    5.1899761893e-03    7.1004968750e+04
    5.1998179406e-03    7.0925492188e+04
    5.2099120803e-03    7.0841109375e+04
    5.2197575569e-03    7.0758382812e+04
    5.2298689261e-03    7.0676679688e+04
    5.2399798296e-03    7.0599687500e+04
    5.2498476580e-03    7.0526484375e+04
    5.2599674091e-03    7.0449273438e+04
    5.2698571235e-03    7.0371101562e+04
    5.2799917758e-03    7.0292140625e+04
    5.2898842841e-03    7.0219929688e+04
    5.2997851744e-03    7.0151476562e+04
    5.3099375218e-03    7.0080117188e+04
    5.3198458627e-03    7.0006226562e+04
    5.3297621198e-03    6.9930757812e+04
    5.3399377503e-03    6.9857351562e+04
    5.3498568013e-03    6.9791625000e+04
    5.3597888909e-03    6.9727609375e+04
    5.3699770942e-03    6.9658414062e+04
    5.3799273446e-03    6.9587210938e+04
    5.3898659535e-03    6.9517367188e+04
    5.3998213261e-03    6.9452679688e+04
    5.4097836837e-03    6.9391742188e+04
    5.4197539575e-03    6.9329640625e+04
    5.4299682379e-03    6.9262367188e+04
    5.4399492219e-03    6.9195906250e+04
    5.4499339312e-03    6.9132742188e+04
    5.4599251598e-03    6.9073218750e+04
    5.4699094035e-03    6.9013843750e+04
    5.4799090140e-03    6.8951710938e+04
    5.4899142124e-03    6.8888484375e+04
    5.4999277927e-03    6.8828101562e+04
    5.5099381134e-03    6.8771992188e+04
    5.5199540220e-03    6.8717289062e+04
    5.5299783126e-03    6.8660281250e+04
    5.5397646502e-03    6.8602320312e+04
    5.5497991852e-03    6.8543703125e+04
    5.5598337203e-03    6.8488289062e+04
    5.5698752403e-03    6.8434835938e+04
    5.5799274705e-03    6.8380609375e+04
    5.5899848230e-03    6.8325335938e+04
    5.5997911841e-03    6.8272742188e+04
    5.6098490022e-03    6.8221359375e+04
    5.6199152023e-03    6.8170718750e+04
    5.6299907155e-03    6.8118601562e+04
    5.6398161687e-03    6.8066984375e+04
    5.6498972699e-03    6.8015601562e+04
    5.6599783711e-03    6.7966593750e+04
    5.6698163971e-03    6.7919609375e+04
    5.6799133308e-03    6.7870968750e+04
    5.6897583418e-03    6.7823632812e+04
    5.6998571381e-03    6.7776015625e+04
    5.7099638507e-03    6.7729054688e+04
    5.7198242284e-03    6.7683335938e+04
    5.7299472392e-03    6.7636875000e+04
    5.7398173958e-03    6.7592648438e+04
    5.7499348186e-03    6.7548234375e+04
    5.7598026469e-03    6.7505203125e+04
    5.7699326426e-03    6.7461265625e+04
    5.7798228227e-03    6.7418929688e+04
    5.7899709791e-03    6.7376164062e+04
    5.7998625562e-03    6.7334906250e+04
    5.8097518049e-03    6.7294031250e+04
    5.8198915794e-03    6.7252687500e+04
    5.8297784999e-03    6.7212937500e+04
    5.8399233967e-03    6.7172632812e+04
    5.8498256840e-03    6.7133804688e+04
    5.8599826880e-03    6.7094531250e+04
    5.8698831126e-03    6.7056875000e+04
    5.8797807433e-03    6.7019906250e+04
    5.8899316937e-03    6.6982687500e+04
    5.8998283930e-03    6.6946929688e+04
    5.9099770151e-03    6.6910625000e+04
    5.9198737144e-03    6.6875562500e+04
    5.9297741391e-03    6.6840937500e+04
    5.9399325401e-03    6.6805976562e+04
    5.9498399496e-03    6.6772335938e+04
    5.9597464278e-03    6.6739117188e+04
    5.9699052945e-03    6.6705523438e+04
    5.9798089787e-03    6.6673304688e+04
    5.9899655171e-03    6.6640820312e+04
    5.9998682700e-03    6.6609695312e+04
    6.0097705573e-03    6.6579046875e+04
    6.0199270956e-03    6.6548023438e+04
    6.0298303142e-03    6.6518117188e+04
    6.0399868526e-03    6.6487804688e+04
    6.0498891398e-03    6.6458742188e+04
    6.0597909614e-03    6.6430351562e+04
    6.0699465685e-03    6.6402000000e+04
    6.0798483901e-03    6.6374953125e+04
    6.0897492804e-03    6.6348265625e+04
    6.0999039561e-03    6.6321078125e+04
    6.1098048463e-03    6.6294710938e+04
    6.1199585907e-03    6.6267984375e+04
    6.1298585497e-03    6.6242484375e+04
    6.1397585087e-03    6.6217671875e+04
    6.1499117874e-03    6.6192835938e+04
    6.1598108150e-03    6.6169046875e+04
    6.1699636281e-03    6.6145023438e+04
    6.1798631214e-03    6.6122046875e+04
    6.1897635460e-03    6.6099507812e+04
    6.1999196187e-03    6.6076734375e+04
    6.2098209746e-03    6.6054789062e+04
    6.2199756503e-03    6.6032687500e+04
    6.2298746780e-03    6.6011742188e+04
    6.2397727743e-03    6.5991414062e+04
    6.2499246560e-03    6.5971023438e+04
    6.2598218210e-03    6.5951453125e+04
    6.2699727714e-03    6.5931679688e+04
    6.2798722647e-03    6.5912734375e+04
    6.2897745520e-03    6.5894179688e+04
    6.2999324873e-03    6.5875585938e+04
    6.3098352402e-03    6.5857898438e+04
    6.3199913129e-03    6.5840171875e+04
    6.3298922032e-03    6.5823281250e+04
    6.3397926278e-03    6.5806781250e+04
    6.3499463722e-03    6.5790289062e+04
    6.3598453999e-03    6.5774617188e+04
    6.3697472215e-03    6.5759359375e+04
    6.3799079508e-03    6.5744085938e+04
    6.3898139633e-03    6.5729546875e+04
    6.3999718986e-03    6.5715023438e+04
    6.4098760486e-03    6.5701273438e+04
    6.4197783358e-03    6.5687953125e+04
    6.4299372025e-03    6.5674773438e+04
    6.4398464747e-03    6.5662414062e+04
    6.4497562125e-03    6.5650578125e+04
    6.4599183388e-03    6.5638976562e+04
    6.4698257484e-03    6.5627992188e+04
    6.4799864776e-03    6.5616695312e+04
    6.4898952842e-03    6.5605406250e+04
    6.4998078160e-03    6.5593937500e+04
    6.5099741332e-03    6.5582531250e+04
    6.5198848024e-03    6.5572390625e+04
    6.5297945403e-03    6.5563304688e+04
    6.5399594605e-03    6.5554578125e+04
    6.5498747863e-03    6.5546179688e+04
    6.5597891808e-03    6.5538046875e+04
    6.5699573606e-03    6.5530589844e+04
    6.5798703581e-03    6.5524269531e+04
    6.5897842869e-03    6.5518093750e+04
    6.5999566577e-03    6.5510984375e+04
    6.6098733805e-03    6.5503410156e+04
    6.6197891720e-03    6.5496261719e+04
    6.6299587488e-03    6.5490328125e+04
    6.6398768686e-03    6.5485792969e+04
    6.6497959197e-03    6.5481550781e+04
    6.6599682905e-03    6.5476812500e+04
    6.6698859446e-03    6.5472019531e+04
    6.6798040643e-03    6.5467730469e+04
    6.6899782978e-03    6.5464207031e+04
    6.6998973489e-03    6.5461363281e+04
    6.7098164000e-03    6.5458667969e+04
    6.7199897021e-03    6.5455953125e+04
    6.7299096845e-03    6.5453609375e+04
    6.7398287356e-03    6.5451675781e+04
    6.7497477867e-03    6.5450082031e+04
    6.7599215545e-03    6.5448718750e+04
    6.7698415369e-03    6.5447730469e+04
    6.7797605880e-03    6.5447191406e+04
    6.7899338901e-03    6.5447136719e+04
    6.7998524755e-03    6.5447464844e+04
    6.8097719923e-03    6.5448074219e+04
    6.8199448287e-03    6.5448875000e+04
    6.8298634142e-03    6.5449843750e+04
    6.8397824652e-03    6.5451125000e+04
    6.8499553017e-03    6.5452988281e+04
    6.8598734215e-03    6.5455417969e+04
    6.8697910756e-03    6.5458269531e+04
    6.8799634464e-03    6.5461378906e+04
    6.8898811005e-03    6.5464417969e+04
    6.8997987546e-03    6.5467484375e+04
    6.9099701941e-03    6.5470894531e+04
    6.9198873825e-03    6.5474738281e+04
    6.9298041053e-03    6.5479203125e+04
    6.9399750791e-03    6.5484312500e+04
    6.9498913363e-03    6.5489589844e+04
    6.9598085247e-03    6.5495019531e+04
    6.9699813612e-03    6.5500800781e+04
    6.9799004123e-03    6.5506746094e+04
    6.9898189977e-03    6.5513035156e+04
    6.9999904372e-03    6.5519828125e+04
    7.0099076256e-03    6.5526750000e+04
    7.0198238827e-03    6.5533925781e+04
    7.0299948566e-03    6.5541546875e+04
    7.0399120450e-03    6.5549234375e+04
    7.0498306304e-03    6.5557234375e+04
    7.0597496815e-03    6.5565617188e+04
    7.0699225180e-03    6.5574625000e+04
    7.0798411034e-03    6.5583773438e+04
    7.0897587575e-03    6.5593203125e+04
    7.0999311283e-03    6.5603093750e+04
    7.1098487824e-03    6.5612968750e+04
    7.1197659709e-03    6.5623187500e+04
    7.1299374104e-03    6.5634218750e+04
    7.1398545988e-03    6.5645617188e+04
    7.1497713216e-03    6.5657500000e+04
    7.1599418297e-03    6.5669835938e+04
    7.1698580869e-03    6.5681695312e+04
    7.1797734126e-03    6.5693492188e+04
    7.1899425238e-03    6.5706070312e+04
    7.1998573840e-03    6.5719195312e+04
    7.2097741067e-03    6.5732890625e+04
    7.2199464776e-03    6.5746750000e+04
    7.2298659943e-03    6.5759734375e+04
    7.2397864424e-03    6.5772804688e+04
    7.2499616072e-03    6.5787273438e+04
    7.2598815896e-03    6.5802601562e+04
    7.2698011063e-03    6.5818359375e+04
    7.2799739428e-03    6.5834109375e+04
    7.2898925282e-03    6.5849054688e+04
    7.2998106480e-03    6.5864296875e+04
    7.3099844158e-03    6.5880796875e+04
    7.3199039325e-03    6.5897546875e+04
    7.3298243806e-03    6.5914453125e+04
    7.3399981484e-03    6.5931750000e+04
    7.3499171995e-03    6.5948843750e+04
    7.3598357849e-03    6.5966437500e+04
    7.3697539046e-03    6.5984484375e+04
    7.3799272068e-03    6.6003242188e+04
    7.3898462579e-03    6.6021695312e+04
    7.3997648433e-03    6.6040429688e+04
    7.4099376798e-03    6.6060015625e+04
    7.4198557995e-03    6.6079460938e+04
    7.4297734536e-03    6.6099187500e+04
    7.4399448931e-03    6.6119695312e+04
    7.4498625472e-03    6.6139960938e+04
    7.4597797357e-03    6.6160500000e+04
    7.4699516408e-03    6.6181875000e+04
    7.4798683636e-03    6.6203023438e+04
    7.4897850864e-03    6.6224492188e+04
    7.4999555945e-03    6.6246804688e+04
    7.5098718517e-03    6.6268835938e+04
    7.5197885744e-03    6.6291125000e+04
    7.5299586169e-03    6.6314265625e+04
    7.5398744084e-03    6.6337093750e+04
    7.5497911312e-03    6.6360242188e+04
    7.5599630363e-03    6.6384375000e+04
    7.5698820874e-03    6.6408367188e+04
    7.5798030011e-03    6.6432835938e+04
    7.5899804942e-03    6.6458343750e+04
    7.5999088585e-03    6.6483390625e+04
    7.6098395512e-03    6.6508382812e+04
    7.6197781600e-03    6.6533335938e+04
    7.6299803331e-03    6.6559164062e+04
    7.6399324462e-03    6.6584937500e+04
    7.6498915441e-03    6.6611406250e+04
    7.6598590240e-03    6.6638390625e+04
    7.6698381454e-03    6.6665593750e+04
    7.6798233204e-03    6.6692882812e+04
    7.6898126863e-03    6.6720367188e+04
    7.6998150907e-03    6.6748210938e+04
    7.7098277397e-03    6.6776453125e+04
    7.7198501676e-03    6.6804992188e+04
    7.7298781835e-03    6.6833750000e+04
    7.7399127185e-03    6.6862757812e+04
    7.7499602921e-03    6.6892132812e+04
    7.7597573400e-03    6.6921203125e+04
    7.7698202804e-03    6.6951507812e+04
    7.7798878774e-03    6.6982265625e+04
    7.7899629250e-03    6.7013429688e+04
    7.7997902408e-03    6.7044148438e+04
    7.8098867089e-03    6.7075953125e+04
    7.8199878335e-03    6.7107945312e+04
    7.8298337758e-03    6.7139250000e+04
    7.8399479389e-03    6.7171585938e+04
    7.8498134390e-03    6.7203414062e+04
    7.8599499539e-03    6.7236492188e+04
    7.8698275611e-03    6.7269148438e+04
    7.8799715266e-03    6.7303109375e+04
    7.8898631036e-03    6.7336562500e+04
    7.8997667879e-03    6.7370359375e+04
    7.9099358991e-03    6.7405335938e+04
    7.9198405147e-03    6.7439671875e+04
    7.9297600314e-03    6.7474351562e+04
    7.9399431124e-03    6.7510281250e+04
    7.9498803243e-03    6.7545687500e+04
    7.9598193988e-03    6.7581468750e+04
    7.9697575420e-03    6.7617656250e+04
    7.9799685627e-03    6.7655250000e+04
    7.9899262637e-03    6.7692273438e+04
    7.9998914152e-03    6.7729539062e+04
    8.0098593608e-03    6.7766960938e+04
    8.0198291689e-03    6.7804562500e+04
    8.0298082903e-03    6.7842437500e+04
    8.0398013815e-03    6.7880656250e+04
    8.0497963354e-03    6.7919109375e+04
    8.0597931519e-03    6.7957781250e+04
    8.0697853118e-03    6.7996664062e+04
    8.0797951669e-03    6.8036015625e+04
    8.0898143351e-03    6.8075929688e+04
    8.0998335034e-03    6.8116437500e+04
    8.1098563969e-03    6.8157492188e+04
    8.1198709086e-03    6.8198890625e+04
    8.1298984587e-03    6.8240585938e+04
    8.1399437040e-03    6.8282492188e+04
    8.1499917433e-03    6.8324507812e+04
    8.1597780809e-03    6.8365500000e+04
    8.1698307768e-03    6.8407718750e+04
    8.1798834726e-03    6.8450125000e+04
    8.1899473444e-03    6.8492898438e+04
    8.1997495145e-03    6.8534953125e+04
    8.2098310813e-03    6.8578640625e+04
    8.2199107856e-03    6.8622695312e+04
    8.2299970090e-03    6.8667132812e+04
    8.2398205996e-03    6.8710914062e+04
    8.2499030977e-03    6.8756843750e+04
    8.2597341388e-03    6.8803328125e+04
    8.2698399201e-03    6.8853585938e+04
    8.2799522206e-03    6.8906656250e+04
    8.2898046821e-03    6.8960460938e+04
    8.2999207079e-03    6.9016132812e+04
    8.3097657189e-03    6.9068523438e+04
    8.3198947832e-03    6.9118835938e+04
    8.3297602832e-03    6.9164398438e+04
    8.3398986608e-03    6.9209882812e+04
    8.3497753367e-03    6.9255765625e+04
    8.3599239588e-03    6.9306234375e+04
    8.3698090166e-03    6.9358015625e+04
    8.3799613640e-03    6.9411945312e+04
    8.3898501471e-03    6.9463718750e+04
    8.3997426555e-03    6.9514750000e+04
    8.4099145606e-03    6.9567445312e+04
    8.4198303521e-03    6.9619757812e+04
    8.4297442809e-03    6.9672851562e+04
    8.4399254993e-03    6.9727710938e+04
    8.4498394281e-03    6.9781351562e+04
    8.4597487003e-03    6.9835414062e+04
    8.4699392319e-03    6.9891632812e+04
    8.4798773751e-03    6.9946921875e+04
    8.4898173809e-03    7.0002460938e+04
    8.4997573867e-03    7.0058218750e+04
    8.5099637508e-03    7.0115890625e+04
    8.5199000314e-03    7.0172703125e+04
    8.5298437625e-03    7.0230367188e+04
    8.5398033261e-03    7.0288875000e+04
    8.5497694090e-03    7.0347898438e+04
    8.5597345605e-03    7.0407093750e+04
    8.5699679330e-03    7.0467937500e+04
    8.5799284279e-03    7.0527296875e+04
    8.5898889229e-03    7.0587000000e+04
    8.5998661816e-03    7.0647335938e+04
    8.6098527536e-03    7.0708460938e+04
    8.6198439822e-03    7.0770460938e+04
    8.6298342794e-03    7.0833343750e+04
    8.6398199201e-03    7.0896914062e+04
    8.6498074234e-03    7.0960960938e+04
    8.6598042399e-03    7.1025382812e+04
    8.6698103696e-03    7.1090210938e+04
    8.6798211560e-03    7.1155578125e+04
    8.6898375303e-03    7.1221585938e+04
    8.6998492479e-03    7.1288164062e+04
    8.7098600343e-03    7.1355187500e+04
    8.7198754773e-03    7.1422609375e+04
    8.7299011648e-03    7.1490421875e+04
    8.7399343029e-03    7.1558687500e+04
    8.7499720976e-03    7.1627562500e+04
    8.7597407401e-03    7.1695312500e+04
    8.7697766721e-03    7.1765750000e+04
    8.7798144668e-03    7.1837015625e+04
    8.7898578495e-03    7.1909000000e+04
    8.7999086827e-03    7.1981609375e+04
    8.8099678978e-03    7.2054859375e+04
    8.8197607547e-03    7.2219570312e+04
    8.8298246264e-03    1.0917500000e+05
    8.8398875669e-03    1.1304978906e+05
    8.8499514386e-03    1.1279786719e+05
    8.8597470894e-03    1.1263836719e+05
    8.8698230684e-03    1.1247514844e+05
    8.8799055666e-03    1.1231331250e+05
    8.8899917901e-03    1.1215453906e+05
    8.8998069987e-03    1.1200266406e+05
    8.9098960161e-03    1.1184872656e+05
    8.9199859649e-03    1.1169572656e+05
    8.9298058301e-03    1.1155225000e+05
    8.9399078861e-03    1.1140397656e+05
    8.9497435838e-03    1.1126222656e+05
    8.9598540217e-03    1.1112097656e+05
    8.9699644595e-03    1.1097966406e+05
    8.9798048139e-03    1.1084534375e+05
    8.9899217710e-03    1.1070892969e+05
    8.9997686446e-03    1.1057825000e+05
    9.0098958462e-03    1.1044600781e+05
    9.0197529644e-03    1.1031919531e+05
    9.0298876166e-03    1.1019100781e+05
    9.0397503227e-03    1.1006789844e+05
    9.0498859063e-03    1.0994336719e+05
    9.0597542003e-03    1.0982377344e+05
    9.0699009597e-03    1.0970263281e+05
    9.0797794983e-03    1.0958611719e+05
    9.0899355710e-03    1.0946802344e+05
    9.0998206288e-03    1.0935422656e+05
    9.1099822894e-03    1.0923803906e+05
    9.1198738664e-03    1.0912585156e+05
    9.1297691688e-03    1.0901452344e+05
    9.1399410740e-03    1.0890072656e+05
    9.1498438269e-03    1.0879042969e+05
    9.1597512364e-03    1.0868037500e+05
    9.1699361801e-03    1.0856739844e+05
    9.1798473150e-03    1.0845708594e+05
    9.1897631064e-03    1.0834666406e+05
    9.1999601573e-03    1.0823253906e+05
    9.2098852620e-03    1.0812152344e+05
    9.2198131606e-03    1.0801010156e+05
    9.2297438532e-03    1.0789828906e+05
    9.2399558052e-03    1.0778324219e+05
    9.2498939484e-03    1.0767002344e+05
    9.2598348856e-03    1.0755697656e+05
    9.2697804794e-03    1.0744333594e+05
    9.2797325924e-03    1.0732957031e+05
    9.2899659649e-03    1.0721272656e+05
    9.2999227345e-03    1.0709935156e+05
    9.3098832294e-03    1.0698528906e+05
    9.3198493123e-03    1.0687180469e+05
    9.3298181891e-03    1.0675778125e+05
    9.3397907913e-03    1.0664405469e+05
    9.3497689813e-03    1.0653018750e+05
    9.3597508967e-03    1.0641650781e+05
    9.3697365373e-03    1.0630346875e+05
    9.3797249720e-03    1.0619065625e+05
    9.3899928033e-03    1.0607494531e+05
    9.3999886885e-03    1.0596287500e+05
    9.4099901617e-03    1.0585110156e+05
    9.4199962914e-03    1.0573933594e+05
    9.4297267497e-03    1.0563096094e+05
    9.4397393987e-03    1.0551991406e+05
    9.4497576356e-03    1.0540921094e+05
    9.4597786665e-03    1.0529902344e+05
    9.4698006287e-03    1.0518958594e+05
    9.4798272476e-03    1.0508083594e+05
    9.4898603857e-03    1.0497268750e+05
    9.4999000430e-03    1.0486464844e+05
    9.5099471509e-03    1.0475667969e+05
    9.5199998468e-03    1.0464896094e+05
    9.5297787338e-03    1.0454488281e+05
    9.5398388803e-03    1.0443875781e+05
    9.5498962328e-03    1.0433327344e+05
    9.5599517226e-03    1.0422799219e+05
    9.5697315410e-03    1.0412609375e+05
    9.5797935501e-03    1.0402130469e+05
    9.5898611471e-03    1.0391639844e+05
    9.5999343321e-03    1.0381287500e+05
    9.6097327769e-03    1.0371302344e+05
    9.6198106185e-03    1.0361075781e+05
    9.6298875287e-03    1.0350888281e+05
    9.6399607137e-03    1.0340756250e+05
    9.6497591585e-03    1.0330933594e+05
    9.6598500386e-03    1.0320859375e+05
    9.6699465066e-03    1.0310824219e+05
    9.6797617152e-03    1.0301138281e+05
    9.6898591146e-03    1.0291252344e+05
    9.6999565139e-03    1.0281403125e+05
    9.7097735852e-03    1.0271835156e+05
    9.7198700532e-03    1.0262018750e+05
    9.7299758345e-03    1.0252260156e+05
    9.7398133948e-03    1.0242852344e+05
    9.7499387339e-03    1.0233235156e+05
    9.7597818822e-03    1.0223921094e+05
    9.7699128091e-03    1.0214357031e+05
    9.7797689959e-03    1.0205072656e+05
    9.7899157554e-03    1.0195555469e+05
    9.7997868434e-03    1.0186358594e+05
    9.8099429160e-03    1.0176972656e+05
    9.8198167980e-03    1.0167918750e+05
    9.8299710080e-03    1.0158646094e+05
    9.8398420960e-03    1.0149659375e+05
    9.8499907181e-03    1.0140421875e+05
    9.8598580807e-03    1.0131471094e+05
    9.8697301000e-03    1.0122596875e+05
    9.8798898980e-03    1.0113574219e+05
    9.8897712305e-03    1.0104825000e+05
    9.8999347538e-03    1.0095843750e+05
    9.9098151550e-03    1.0087127344e+05
    9.9199758843e-03    1.0078189844e+05
    9.9298525602e-03    1.0069547656e+05
    9.9397292361e-03    1.0060952344e+05
    9.9498881027e-03    1.0052215625e+05
    9.9597675726e-03    1.0043756250e+05
    9.9699310958e-03    1.0035108594e+05
    9.9798114970e-03    1.0026717969e+05
    9.9899731576e-03    1.0018121875e+05
    9.9998507649e-03    1.0009808594e+05
    1.0009727441e-02    1.0001561719e+05
    1.0019888170e-02    9.9931273438e+04
    1.0029769503e-02    9.9849429688e+04
    1.0039935820e-02    9.9765562500e+04
    1.0049818084e-02    9.9684164062e+04
    1.0059980676e-02    9.9600804688e+04
    1.0069861077e-02    9.9520289062e+04
    1.0079742409e-02    9.9440335938e+04
    1.0089910589e-02    9.9358460938e+04
    1.0099801235e-02    9.9279250000e+04
    1.0109976865e-02    9.9198164062e+04
    1.0119870305e-02    9.9119757812e+04
    1.0129760951e-02    9.9041687500e+04
    1.0139931925e-02    9.8961632812e+04
    1.0149823502e-02    9.8884226562e+04
    1.0159725323e-02    9.8807304688e+04
    1.0169919580e-02    9.8728617188e+04
    1.0179834440e-02    9.8652406250e+04
    1.0189752094e-02    9.8576601562e+04
    1.0199954733e-02    9.8498789062e+04
    1.0209873319e-02    9.8423117188e+04
    1.0219790041e-02    9.8348039062e+04
    1.0229988955e-02    9.8271445312e+04
    1.0239902884e-02    9.8197351562e+04
    1.0249815881e-02    9.8123085938e+04
    1.0259728879e-02    9.8049289062e+04
    1.0269925930e-02    9.7974179688e+04
    1.0279842652e-02    9.7901335938e+04
    1.0289761238e-02    9.7828851562e+04
    1.0299964808e-02    9.7754500000e+04
    1.0309884325e-02    9.7682625000e+04
    1.0319802910e-02    9.7611039062e+04
    1.0329720564e-02    9.7539843750e+04
    1.0339920409e-02    9.7466882812e+04
    1.0349836200e-02    9.7396226562e+04
    1.0359751061e-02    9.7325914062e+04
    1.0369948111e-02    9.7253726562e+04
    1.0379862040e-02    9.7183898438e+04
    1.0389775038e-02    9.7114273438e+04
    1.0399971157e-02    9.7043164062e+04
    1.0409883223e-02    9.6974273438e+04
    1.0419793427e-02    9.6905539062e+04
    1.0429987684e-02    9.6835187500e+04
    1.0439897887e-02    9.6766906250e+04
    1.0449807160e-02    9.6698929688e+04
    1.0459999554e-02    9.6629382812e+04
    1.0469908826e-02    9.6562023438e+04
    1.0479817167e-02    9.6495023438e+04
    1.0489724576e-02    9.6428304688e+04
    1.0499915108e-02    9.6359585938e+04
    1.0509822518e-02    9.6293039062e+04
    1.0519729927e-02    9.6227210938e+04
    1.0529921390e-02    9.6159789062e+04
    1.0539828800e-02    9.6094343750e+04
    1.0549735278e-02    9.6028789062e+04
    1.0559925810e-02    9.5960835938e+04
    1.0569834150e-02    9.5894273438e+04
    1.0579746217e-02    9.5829187500e+04
    1.0589946061e-02    9.5764132812e+04
    1.0599864647e-02    9.5702492188e+04
    1.0609786026e-02    9.5640554688e+04
    1.0619995184e-02    9.5573773438e+04
    1.0629920289e-02    9.5505968750e+04
    1.0639851913e-02    9.5437687500e+04
    1.0649789125e-02    9.5372664062e+04
    1.0659735650e-02    9.5312812500e+04
    1.0669980198e-02    9.5255242188e+04
    1.0679941624e-02    9.5199179688e+04
    1.0689903051e-02    9.5138648438e+04
    1.0699873790e-02    9.5071664062e+04
    1.0709845461e-02    9.5000507812e+04
    1.0719829239e-02    9.4930148438e+04
    1.0729833506e-02    9.4864070312e+04
    1.0739854537e-02    9.4802695312e+04
    1.0749884881e-02    9.4745062500e+04
    1.0759917088e-02    9.4690148438e+04
    1.0769947432e-02    9.4635960938e+04
    1.0779723525e-02    9.4581945312e+04
    1.0789825581e-02    9.4523335938e+04
    1.0799961165e-02    9.4461164062e+04
    1.0809830390e-02    9.4398148438e+04
    1.0819715448e-02    9.4333648438e+04
    1.0829900391e-02    9.4267398438e+04
    1.0839804076e-02    9.4204343750e+04
    1.0849718004e-02    9.4143085938e+04
    1.0859937407e-02    9.4082062500e+04
    1.0869888589e-02    9.4024187500e+04
    1.0879870504e-02    9.3967273438e+04
    1.0889889672e-02    9.3909843750e+04
    1.0899945162e-02    9.3851593750e+04
    1.0909737088e-02    9.3794304688e+04
    1.0919854045e-02    9.3735007812e+04
    1.0929988697e-02    9.3675882812e+04
    1.0939835571e-02    9.3618679688e+04
    1.0949985124e-02    9.3559906250e+04
    1.0959840380e-02    9.3503031250e+04
    1.0969998315e-02    9.3444523438e+04
    1.0979857296e-02    9.3387789062e+04
    1.0989727452e-02    9.3331250000e+04
    1.0999921709e-02    9.3273218750e+04
    1.1009845883e-02    9.3216906250e+04
    1.1019800790e-02    9.3160593750e+04
    1.1029790156e-02    9.3104585938e+04
    1.1039823294e-02    9.3048632812e+04
    1.1049927212e-02    9.2992398438e+04
    1.1059831828e-02    9.2937500000e+04
    1.1069882661e-02    9.2881679688e+04
    1.1079798453e-02    9.2825929688e+04
    1.1089910753e-02    9.2768414062e+04
    1.1099894531e-02    9.2711117188e+04
    1.1109733954e-02    9.2654406250e+04
    1.1119755916e-02    9.2597562500e+04
    1.1129958555e-02    9.2540976562e+04
    1.1139979586e-02    9.2486507812e+04
    1.1149796657e-02    9.2434593750e+04
    1.1159763671e-02    9.2382632812e+04
    1.1169878766e-02    9.2329664062e+04
    1.1179756373e-02    9.2278007812e+04
    1.1189768091e-02    9.2224539062e+04
    1.1199912988e-02    9.2169789062e+04
    1.1209792458e-02    9.2115898438e+04
    1.1219793931e-02    9.2059664062e+04
    1.1229915544e-02    9.2002773438e+04
    1.1239746585e-02    9.1948054688e+04
    1.1249686591e-02    9.1893757812e+04
    1.1259735562e-02    9.1841101562e+04
    1.1269896291e-02    9.1789000000e+04
    1.1279738508e-02    9.1739429688e+04
    1.1289680377e-02    9.1688664062e+04
    1.1299721897e-02    9.1635164062e+04
    1.1309864931e-02    9.1579335938e+04
    1.1319654062e-02    9.1524398438e+04
    1.1329968460e-02    9.1468500000e+04
    1.1339901946e-02    9.1417398438e+04
    1.1349895038e-02    9.1367812500e+04
    1.1359937489e-02    9.1318070312e+04
    1.1369559914e-02    9.1268195312e+04
    1.1379679665e-02    9.1214000000e+04
    1.1389829218e-02    9.1158343750e+04
    1.1399551295e-02    9.1106750000e+04
    1.1409779079e-02    9.1054414062e+04
    1.1419594288e-02    9.1006007812e+04
    1.1429928243e-02    9.0954414062e+04
    1.1439823546e-02    9.0903210938e+04
    1.1449758895e-02    9.0850242188e+04
    1.1459744535e-02    9.0797148438e+04
    1.1469748802e-02    9.0745812500e+04
    1.1479805224e-02    9.0695781250e+04
    1.1489929631e-02    9.0646242188e+04
    1.1499587446e-02    9.0597101562e+04
    1.1509764940e-02    9.0544085938e+04
    1.1519997381e-02    9.0490335938e+04
    1.1529771611e-02    9.0441273438e+04
    1.1539592408e-02    9.0392914062e+04
    1.1549928226e-02    9.0341835938e+04
    1.1559832841e-02    9.0291179688e+04
    1.1569729075e-02    9.0239789062e+04
    1.1579692364e-02    9.0188882812e+04
    1.1589694768e-02    9.0139648438e+04
    1.1599724181e-02    9.0090992188e+04
    1.1609753594e-02    9.0040976562e+04
    1.1619868688e-02    8.9989945312e+04
    1.1629528366e-02    8.9940617188e+04
    1.1639669538e-02    8.9890500000e+04
    1.1649842374e-02    8.9840773438e+04
    1.1659585871e-02    8.9793281250e+04
    1.1669873260e-02    8.9741539062e+04
    1.1679606512e-02    8.9692726562e+04
    1.1689922772e-02    8.9642101562e+04
    1.1699814349e-02    8.9594226562e+04
    1.1709697545e-02    8.9545773438e+04
    1.1719664559e-02    8.9496367188e+04
    1.1729575694e-02    8.9447476562e+04
    1.1739506386e-02    8.9398906250e+04
    1.1749465019e-02    8.9350882812e+04
    1.1759447865e-02    8.9302148438e+04
    1.1769482866e-02    8.9252851562e+04
    1.1779557914e-02    8.9204039062e+04
    1.1789660901e-02    8.9155335938e+04
    1.1799779721e-02    8.9106875000e+04
    1.1809891090e-02    8.9057593750e+04
    1.1819550768e-02    8.9010757812e+04
    1.1829669587e-02    8.8962054688e+04
    1.1839863844e-02    8.8913070312e+04
    1.1849554256e-02    8.8866437500e+04
    1.1859796941e-02    8.8817054688e+04
    1.1869548820e-02    8.8770398438e+04
    1.1879830621e-02    8.8721429688e+04
    1.1889633723e-02    8.8675242188e+04
    1.1899880134e-02    8.8626070312e+04
    1.1909698136e-02    8.8579757812e+04
    1.1919949204e-02    8.8530882812e+04
    1.1929531582e-02    8.8485250000e+04
    1.1939548887e-02    8.8437968750e+04
    1.1949806474e-02    8.8389601562e+04
    1.1959752999e-02    8.8343218750e+04
    1.1969833635e-02    8.8296445312e+04
    1.1979558505e-02    8.8250695312e+04
    1.1989815161e-02    8.8202039062e+04
    1.1999673210e-02    8.8154992188e+04
    1.2009952217e-02    8.8105414062e+04
    1.2019790709e-02    8.8058257812e+04
    1.2029932812e-02    8.8010570312e+04
    1.2039937079e-02    8.7964335938e+04
    1.2049756944e-02    8.7919773438e+04
    1.2059966102e-02    8.7874148438e+04
    1.2069815770e-02    8.7829820312e+04
    1.2079781853e-02    8.7784351562e+04
    1.2089902535e-02    8.7737718750e+04
    1.2099880725e-02    8.7691648438e+04
    1.2109953910e-02    8.7644875000e+04
    1.2119891122e-02    8.7598398438e+04
    1.2129953131e-02    8.7552125000e+04
    1.2139976025e-02    8.7506226562e+04
    1.2149944901e-02    8.7460648438e+04
    1.2159935199e-02    8.7415210938e+04
    1.2169850059e-02    8.7370515625e+04
    1.2179963291e-02    8.7324625000e+04
    1.2189835310e-02    8.7279843750e+04
    1.2199855410e-02    8.7234546875e+04
    1.2209940702e-02    8.7188617188e+04
    1.2219898403e-02    8.7143625000e+04
    1.2229908258e-02    8.7098609375e+04
    1.2239931151e-02    8.7054265625e+04
    1.2249970809e-02    8.7010078125e+04
    1.2259785086e-02    8.6967406250e+04
    1.2269970030e-02    8.6923226562e+04
    1.2279856019e-02    8.6880562500e+04
    1.2289846316e-02    8.6837484375e+04
    1.2299924158e-02    8.6794023438e+04
    1.2309852988e-02    8.6750710938e+04
    1.2319847941e-02    8.6706171875e+04
    1.2329901569e-02    8.6661078125e+04
    1.2339776382e-02    8.6616796875e+04
    1.2349923141e-02    8.6571906250e+04
    1.2359885499e-02    8.6528296875e+04
    1.2369874865e-02    8.6485390625e+04
    1.2379917316e-02    8.6442937500e+04
    1.2389970012e-02    8.6400750000e+04
    1.2399843894e-02    8.6359445312e+04
    1.2409953400e-02    8.6316687500e+04
    1.2419881299e-02    8.6274148438e+04
    1.2429812923e-02    8.6231421875e+04
    1.2439772487e-02    8.6188437500e+04
    1.2449765578e-02    8.6145515625e+04
    1.2459999882e-02    8.6102000000e+04
    1.2469810434e-02    8.6061039062e+04
    1.2479831465e-02    8.6019835938e+04
    1.2489921413e-02    8.5978375000e+04
    1.2499997392e-02    8.5936578125e+04
    1.2509861030e-02    8.5895375000e+04
    1.2519991025e-02    8.5852921875e+04
    1.2529898435e-02    8.5811468750e+04
    1.2539825402e-02    8.5770304688e+04
    1.2549762614e-02    8.5729679688e+04
    1.2559985742e-02    8.5687804688e+04
    1.2569963932e-02    8.5647226562e+04
    1.2579957955e-02    8.5606718750e+04
    1.2589985505e-02    8.5566101562e+04
    1.2599774636e-02    8.5526382812e+04
    1.2609819882e-02    8.5485625000e+04
    1.2619892135e-02    8.5445210938e+04
    1.2629984878e-02    8.5404929688e+04
    1.2639830820e-02    8.5365703125e+04
    1.2649940327e-02    8.5325445312e+04
    1.2659833767e-02    8.5286156250e+04
    1.2669969350e-02    8.5245992188e+04
    1.2679865584e-02    8.5206937500e+04
    1.2689797208e-02    8.5167890625e+04
    1.2699979357e-02    8.5128000000e+04
    1.2709912844e-02    8.5089218750e+04
    1.2719873339e-02    8.5050523438e+04
    1.2729853392e-02    8.5011812500e+04
    1.2739823200e-02    8.4973320312e+04
    1.2749806978e-02    8.4934851562e+04
    1.2759825215e-02    8.4896312500e+04
    1.2769833207e-02    8.4857976562e+04
    1.2779844925e-02    8.4819945312e+04
    1.2789887376e-02    8.4781859375e+04
    1.2799939141e-02    8.4743796875e+04
    1.2809976935e-02    8.4706117188e+04
    1.2819784693e-02    8.4669179688e+04
    1.2829873711e-02    8.4631421875e+04
    1.2839948758e-02    8.4594054688e+04
    1.2849780731e-02    8.4557242188e+04
    1.2859893031e-02    8.4519765625e+04
    1.2869756669e-02    8.4483226562e+04
    1.2879868969e-02    8.4446000000e+04
    1.2889751233e-02    8.4410023438e+04
    1.2899899855e-02    8.4372992188e+04
    1.2909787707e-02    8.4337117188e+04
    1.2919940986e-02    8.4300390625e+04
    1.2929861434e-02    8.4264750000e+04
    1.2939786538e-02    8.4229226562e+04
    1.2949962169e-02    8.4192882812e+04
    1.2959904037e-02    8.4157453125e+04
    1.2969858013e-02    8.4122039062e+04
    1.2979810126e-02    8.4086804688e+04
    1.2989767827e-02    8.4051695312e+04
    1.2999744155e-02    8.4016671875e+04
    1.3009977527e-02    8.3981015625e+04
    1.3019965030e-02    8.3946398438e+04
    1.3029958121e-02    8.3911828125e+04
    1.3039962389e-02    8.3877273438e+04
    1.3049968518e-02    8.3842812500e+04
    1.3059983961e-02    8.3808460938e+04
    1.3069753535e-02    8.3775226562e+04
    1.3079784811e-02    8.3741335938e+04
    1.3089815155e-02    8.3707562500e+04
    1.3099861331e-02    8.3673781250e+04
    1.3109913096e-02    8.3640226562e+04
    1.3119970448e-02    8.3606890625e+04
    1.3129772618e-02    8.3574429688e+04
    1.3139841147e-02    8.3541257812e+04
    1.3149918057e-02    8.3508085938e+04
    1.3159741648e-02    8.3475781250e+04
    1.3169828802e-02    8.3442859375e+04
    1.3179924339e-02    8.3410015625e+04
    1.3189760968e-02    8.3378367188e+04
    1.3199867681e-02    8.3345914062e+04
    1.3209979050e-02    8.3313507812e+04
    1.3219834305e-02    8.3281984375e+04
    1.3229952194e-02    8.3249867188e+04
    1.3239816763e-02    8.3218843750e+04
    1.3249946758e-02    8.3187062500e+04
    1.3259825297e-02    8.3156039062e+04
    1.3269961812e-02    8.3124406250e+04
    1.3279849663e-02    8.3093796875e+04
    1.3289740309e-02    8.3063421875e+04
    1.3299894519e-02    8.3032507812e+04
    1.3309792615e-02    8.3002429688e+04
    1.3319951482e-02    8.2971679688e+04
    1.3329855166e-02    8.2941851562e+04
    1.3339768164e-02    8.2912109375e+04
    1.3349944726e-02    8.2881742188e+04
    1.3359866105e-02    8.2852265625e+04
    1.3369786553e-02    8.2822875000e+04
    1.3379967771e-02    8.2792734375e+04
    1.3389894739e-02    8.2763398438e+04
    1.3399820775e-02    8.2734289062e+04
    1.3409751467e-02    8.2705437500e+04
    1.3419948518e-02    8.2675992188e+04
    1.3429888524e-02    8.2647359375e+04
    1.3439834118e-02    8.2618929688e+04
    1.3449781574e-02    8.2590835938e+04
    1.3459991664e-02    8.2561890625e+04
    1.3469939120e-02    8.2533750000e+04
    1.3479885645e-02    8.2506109375e+04
    1.3489832170e-02    8.2478632812e+04
    1.3499778695e-02    8.2451023438e+04
    1.3509986922e-02    8.2422859375e+04
    1.3519932516e-02    8.2395593750e+04
    1.3529879972e-02    8.2368304688e+04
    1.3539827429e-02    8.2341179688e+04
    1.3549776748e-02    8.2314281250e+04
    1.3559987769e-02    8.2286718750e+04
    1.3569938019e-02    8.2260140625e+04
    1.3579890132e-02    8.2233617188e+04
    1.3589842245e-02    8.2207421875e+04
    1.3599794358e-02    8.2181210938e+04
    1.3609747402e-02    8.2155281250e+04
    1.3619961217e-02    8.2128773438e+04
    1.3629914261e-02    8.2103054688e+04
    1.3639866374e-02    8.2077515625e+04
    1.3649819419e-02    8.2052210938e+04
    1.3659772463e-02    8.2027000000e+04
    1.3669988140e-02    8.2001234375e+04
    1.3679943047e-02    8.1976101562e+04
    1.3689897954e-02    8.1951078125e+04
    1.3699853793e-02    8.1926273438e+04
    1.3709809631e-02    8.1901773438e+04
    1.3719766401e-02    8.1877460938e+04
    1.3729985803e-02    8.1852640625e+04
    1.3739943504e-02    8.1828437500e+04
    1.3749901205e-02    8.1804234375e+04
    1.3759860769e-02    8.1780109375e+04
    1.3769819401e-02    8.1756226562e+04
    1.3779778965e-02    8.1732804688e+04
    1.3789738528e-02    8.1709460938e+04
    1.3799960725e-02    8.1685382812e+04
    1.3809921220e-02    8.1662359375e+04
    1.3819881715e-02    8.1639484375e+04
    1.3829843141e-02    8.1616460938e+04
    1.3839803636e-02    8.1593992188e+04
    1.3849764131e-02    8.1571507812e+04
    1.3859986328e-02    8.1547914062e+04
    1.3869947754e-02    8.1525546875e+04
    1.3879910111e-02    8.1503187500e+04
    1.3889875263e-02    8.1480421875e+04
    1.3899844140e-02    8.1458625000e+04
    1.3909817673e-02    8.1436562500e+04
    1.3919794932e-02    8.1414648438e+04
    1.3929771259e-02    8.1393335938e+04
    1.3939746656e-02    8.1371703125e+04
    1.3949983753e-02    8.1350289062e+04
    1.3959957287e-02    8.1329281250e+04
    1.3969929889e-02    8.1308406250e+04
    1.3979901560e-02    8.1287632812e+04
    1.3989875093e-02    8.1267171875e+04
    1.3999853283e-02    8.1246632812e+04
    1.4009833336e-02    8.1226343750e+04
    1.4019813389e-02    8.1206015625e+04
    1.4029793441e-02    8.1185640625e+04
    1.4039773494e-02    8.1165546875e+04
    1.4049752615e-02    8.1145437500e+04
    1.4059995301e-02    8.1124937500e+04
    1.4069975354e-02    8.1105054688e+04
    1.4079955406e-02    8.1085695312e+04
    1.4089935459e-02    8.1066460938e+04
    1.4099915512e-02    8.1046976562e+04
    1.4109895565e-02    8.1027859375e+04
    1.4119876549e-02    8.1009671875e+04
    1.4129857533e-02    8.0990734375e+04
    1.4139839448e-02    8.0971554688e+04
    1.4149819501e-02    8.0953578125e+04
    1.4159800485e-02    8.0934937500e+04
    1.4169781469e-02    8.0915953125e+04
    1.4179762453e-02    8.0898460938e+04
    1.4189744368e-02    8.0880335938e+04
    1.4199987985e-02    8.0861593750e+04
    1.4209969901e-02    8.0844296875e+04
    1.4219951816e-02    8.0826664062e+04
    1.4229933731e-02    8.0808929688e+04
    1.4239914715e-02    8.0792000000e+04
    1.4249896631e-02    8.0774601562e+04
    1.4259878546e-02    8.0757460938e+04
    1.4269860461e-02    8.0740718750e+04
    1.4279842377e-02    8.0723687500e+04
    1.4289824292e-02    8.0707203125e+04
    1.4299805276e-02    8.0690695312e+04
    1.4309787191e-02    8.0674382812e+04
    1.4319769107e-02    8.0658015625e+04
    1.4329751953e-02    8.0641781250e+04
    1.4339997433e-02    8.0625328125e+04
    1.4349979348e-02    8.0609367188e+04
    1.4359962195e-02    8.0593664062e+04
    1.4369944111e-02    8.0578125000e+04
    1.4379926957e-02    8.0562742188e+04
    1.4389908873e-02    8.0547414062e+04
    1.4399892651e-02    8.0532203125e+04
    1.4409875497e-02    8.0517039062e+04
    1.4419858344e-02    8.0502195312e+04
    1.4429841191e-02    8.0487476562e+04
    1.4439824969e-02    8.0472367188e+04
    1.4449807815e-02    8.0457445312e+04
    1.4459790662e-02    8.0443335938e+04
    1.4469774440e-02    8.0428695312e+04
    1.4479757287e-02    8.0413890625e+04
    1.4489741065e-02    8.0400531250e+04
    1.4499987476e-02    8.0386171875e+04
    1.4509970322e-02    8.0371664062e+04
    1.4519954100e-02    8.0358906250e+04
    1.4529936947e-02    8.0345718750e+04
    1.4539920725e-02    8.0331710938e+04
    1.4549904503e-02    8.0318718750e+04
    1.4559888281e-02    8.0305773438e+04
    1.4569872059e-02    8.0292242188e+04
    1.4579855837e-02    8.0279421875e+04
    1.4589838684e-02    8.0266882812e+04
    1.4599822462e-02    8.0254101562e+04
    1.4609807171e-02    8.0241679688e+04
    1.4619790949e-02    8.0229140625e+04
    1.4629774727e-02    8.0216710938e+04
    1.4639758505e-02    8.0204570312e+04
    1.4649743214e-02    8.0192562500e+04
    1.4659989625e-02    8.0180375000e+04
    1.4669973403e-02    8.0168742188e+04
    1.4679958113e-02    8.0156953125e+04
    1.4689942822e-02    8.0145234375e+04
    1.4699926600e-02    8.0133703125e+04
    1.4709911309e-02    8.0122242188e+04
    1.4719896019e-02    8.0110960938e+04
    1.4729880728e-02    8.0099953125e+04
    1.4739865437e-02    8.0088789062e+04
    1.4749850146e-02    8.0077828125e+04
    1.4759835787e-02    8.0067171875e+04
    1.4769820496e-02    8.0056757812e+04
    1.4779806137e-02    8.0046257812e+04
    1.4789790846e-02    8.0035570312e+04
    1.4799776487e-02    8.0025617188e+04
    1.4809761196e-02    8.0015843750e+04
    1.4819746837e-02    8.0005156250e+04
    1.4829995111e-02    7.9995273438e+04
    1.4839981683e-02    7.9986070312e+04
    1.4849967323e-02    7.9975507812e+04
    1.4859953895e-02    7.9966007812e+04
    1.4869940467e-02    7.9957156250e+04
    1.4879927970e-02    7.9947171875e+04
    1.4889914542e-02    7.9937898438e+04
    1.4899901114e-02    7.9929375000e+04
    1.4909887686e-02    7.9920039062e+04
    1.4919874258e-02    7.9911343750e+04
    1.4929860830e-02    7.9902445312e+04
    1.4939848334e-02    7.9893593750e+04
    1.4949835837e-02    7.9885335938e+04
    1.4959824272e-02    7.9876492188e+04
    1.4969812706e-02    7.9868234375e+04
    1.4979800209e-02    7.9860250000e+04
    1.4989788644e-02    7.9852179688e+04
    1.4999776147e-02    7.9843828125e+04
    1.5009764582e-02    7.9835992188e+04
    1.5019753948e-02    7.9828445312e+04
    1.5029742382e-02    7.9820757812e+04
    1.5039995313e-02    7.9812851562e+04
    1.5049984679e-02    7.9805218750e+04
    1.5059974045e-02    7.9798039062e+04
    1.5069963410e-02    7.9790820312e+04
    1.5079952776e-02    7.9783687500e+04
    1.5089943074e-02    7.9776742188e+04
    1.5099932440e-02    7.9769609375e+04
    1.5109922737e-02    7.9762843750e+04
    1.5119912103e-02    7.9756203125e+04
    1.5129902400e-02    7.9749546875e+04
    1.5139891766e-02    7.9743171875e+04
    1.5149882995e-02    7.9737156250e+04
    1.5159873292e-02    7.9730875000e+04
    1.5169864520e-02    7.9724281250e+04
    1.5179855749e-02    7.9718906250e+04
    1.5189846978e-02    7.9712976562e+04
    1.5199839137e-02    7.9706421875e+04
    1.5209830366e-02    7.9701539062e+04
    1.5219822526e-02    7.9696250000e+04
    1.5229813755e-02    7.9690000000e+04
    1.5239805914e-02    7.9685062500e+04
    1.5249797143e-02    7.9680328125e+04
    1.5259789303e-02    7.9674695312e+04
    1.5269782394e-02    7.9670179688e+04
    1.5279775485e-02    7.9665421875e+04
    1.5289768577e-02    7.9660445312e+04
    1.5299761668e-02    7.9656101562e+04
    1.5309754759e-02    7.9651570312e+04
    1.5319747850e-02    7.9647523438e+04
    1.5329740942e-02    7.9643296875e+04
    1.5339997597e-02    7.9639125000e+04
    1.5349991620e-02    7.9634953125e+04
    1.5359985642e-02    7.9631187500e+04
    1.5369979665e-02    7.9627757812e+04
    1.5379973687e-02    7.9624468750e+04
    1.5389968641e-02    7.9621250000e+04
    1.5399963595e-02    7.9617796875e+04
    1.5409957618e-02    7.9614789062e+04
    1.5419952571e-02    7.9612218750e+04
    1.5429947525e-02    7.9610265625e+04
    1.5439942479e-02    7.9608210938e+04
    1.5449938364e-02    7.9606000000e+04
    1.5459934250e-02    7.9603515625e+04
    1.5469929203e-02    7.9600734375e+04
    1.5479925089e-02    7.9597656250e+04
    1.5489920974e-02    7.9595031250e+04
    1.5499916859e-02    7.9593132812e+04
    1.5509913675e-02    7.9590773438e+04
    1.5519910492e-02    7.9588906250e+04
    1.5529907309e-02    7.9587960938e+04
    1.5539904125e-02    7.9586554688e+04
    1.5549900942e-02    7.9584843750e+04
    1.5559897758e-02    7.9585218750e+04
    1.5569894575e-02    7.9585476562e+04
    1.5579892322e-02    7.9584781250e+04
    1.5589890070e-02    7.9584812500e+04
    1.5599887818e-02    7.9585351562e+04
    1.5609885566e-02    7.9585492188e+04
    1.5619883314e-02    7.9585929688e+04
    1.5629881993e-02    7.9586140625e+04
    1.5639878809e-02    7.9586570312e+04
    1.5649877489e-02    7.9587101562e+04
    1.5659876168e-02    7.9587687500e+04
    1.5669874847e-02    7.9588929688e+04
    1.5679873526e-02    7.9590132812e+04
    1.5689874068e-02    7.9591585938e+04
    1.5699872747e-02    7.9593125000e+04
    1.5709871426e-02    7.9594617188e+04
    1.5719871968e-02    7.9596226562e+04
    1.5729870647e-02    7.9597828125e+04
    1.5739869326e-02    7.9599554688e+04
    1.5749869868e-02    7.9601468750e+04
    1.5759870410e-02    7.9603718750e+04
    1.5769869089e-02    7.9606351562e+04
    1.5779869631e-02    7.9609203125e+04
    1.5789870173e-02    7.9612367188e+04
    1.5799870715e-02    7.9615789062e+04
    1.5809871256e-02    7.9619679688e+04
    1.5819871798e-02    7.9623789062e+04
    1.5829872340e-02    7.9628015625e+04
    1.5839872882e-02    7.9632937500e+04
    1.5849875286e-02    7.9638460938e+04
    1.5859875828e-02    7.9643656250e+04
    1.5869876370e-02    7.9648992188e+04
    1.5879878774e-02    7.9655171875e+04
    1.5889879316e-02    7.9660968750e+04
    1.5899881721e-02    7.9666304688e+04
    1.5909884125e-02    7.9672664062e+04
    1.5919884667e-02    7.9679031250e+04
    1.5929887071e-02    7.9684679688e+04
    1.5939889476e-02    7.9691023438e+04
    1.5949891880e-02    7.9697804688e+04
    1.5959894285e-02    7.9704335938e+04
    1.5969896689e-02    7.9711546875e+04
    1.5979899094e-02    7.9719375000e+04
    1.5989901498e-02    7.9727273438e+04
    1.5999905765e-02    7.9735765625e+04
    1.6009908170e-02    7.9744757812e+04
    1.6019910574e-02    7.9753898438e+04
    1.6029914841e-02    7.9763375000e+04
    1.6039917246e-02    7.9772929688e+04
    1.6049921513e-02    7.9782546875e+04
    1.6059923917e-02    7.9792335938e+04
    1.6069928184e-02    7.9802195312e+04
    1.6079932451e-02    7.9812382812e+04
    1.6089936718e-02    7.9822796875e+04
    1.6099939123e-02    7.9833562500e+04
    1.6109943390e-02    7.9844679688e+04
    1.6119947657e-02    7.9856125000e+04
    1.6129951924e-02    7.9867882812e+04
    1.6139956191e-02    7.9879875000e+04
    1.6149960458e-02    7.9892187500e+04
    1.6159966588e-02    7.9905015625e+04
    1.6169970855e-02    7.9918187500e+04
    1.6179975122e-02    7.9931320312e+04
    1.6189979389e-02    7.9944632812e+04
    1.6199985519e-02    7.9958515625e+04
    1.6209989786e-02    7.9972382812e+04
    1.6219995916e-02    7.9986140625e+04
    1.6229737550e-02    8.0000382812e+04
    1.6239743680e-02    8.0015453125e+04
    1.6249747947e-02    8.0030250000e+04
    1.6259754077e-02    8.0046015625e+04
    1.6269760206e-02    8.0062632812e+04
    1.6279764473e-02    8.0078859375e+04
    1.6289770603e-02    8.0095382812e+04
    1.6299776733e-02    8.0112468750e+04
    1.6309782863e-02    8.0129406250e+04
    1.6319788992e-02    8.0146609375e+04
    1.6329795122e-02    8.0164468750e+04
    1.6339801252e-02    8.0182531250e+04
    1.6349809244e-02    8.0200828125e+04
    1.6359815374e-02    8.0219562500e+04
    1.6369821504e-02    8.0238500000e+04
    1.6379827634e-02    8.0257820312e+04
    1.6389835626e-02    8.0277601562e+04
    1.6399841756e-02    8.0297648438e+04
    1.6409849748e-02    8.0317992188e+04
    1.6419855878e-02    8.0338468750e+04
    1.6429863870e-02    8.0359109375e+04
    1.6439870000e-02    8.0380070312e+04
    1.6449877992e-02    8.0401414062e+04
    1.6459884122e-02    8.0423179688e+04
    1.6469892114e-02    8.0445281250e+04
    1.6479900107e-02    8.0467664062e+04
    1.6489908099e-02    8.0490335938e+04
    1.6499916092e-02    8.0513304688e+04
    1.6509922221e-02    8.0536546875e+04
    1.6519930214e-02    8.0559906250e+04
    1.6529938206e-02    8.0583203125e+04
    1.6539946198e-02    8.0606500000e+04
    1.6549954191e-02    8.0630156250e+04
    1.6559962183e-02    8.0654234375e+04
    1.6569970176e-02    8.0678531250e+04
    1.6579978168e-02    8.0703343750e+04
    1.6589986160e-02    8.0728976562e+04
    1.6599996015e-02    8.0754929688e+04
    1.6609741375e-02    8.0780523438e+04
    1.6619749367e-02    8.0807710938e+04
    1.6629757360e-02    8.0835062500e+04
    1.6639767215e-02    8.0862093750e+04
    1.6649775207e-02    8.0889484375e+04
    1.6659783199e-02    8.0916976562e+04
    1.6669793054e-02    8.0944117188e+04
    1.6679801047e-02    8.0971312500e+04
    1.6689810902e-02    8.0998625000e+04
    1.6699818894e-02    8.1025906250e+04
    1.6709828749e-02    8.1053414062e+04
    1.6719836742e-02    8.1081257812e+04
    1.6729846597e-02    8.1109398438e+04
    1.6739854589e-02    8.1138031250e+04
    1.6749864444e-02    8.1167148438e+04
    1.6759874299e-02    8.1196648438e+04
    1.6769882292e-02    8.1226507812e+04
    1.6779892147e-02    8.1256656250e+04
    1.6789902002e-02    8.1287109375e+04
    1.6799909994e-02    8.1317890625e+04
    1.6809919849e-02    8.1349000000e+04
    1.6819929704e-02    8.1380460938e+04
    1.6829939559e-02    8.1412265625e+04
    1.6839949414e-02    8.1444414062e+04
    1.6849957407e-02    8.1476867188e+04
    1.6859967262e-02    8.1509640625e+04
    1.6869977117e-02    8.1542726562e+04
    1.6879986972e-02    8.1576070312e+04
    1.6889996827e-02    8.1609570312e+04
    1.6899742186e-02    8.1642382812e+04
    1.6909752041e-02    8.1676421875e+04
    1.6919761896e-02    8.1710679688e+04
    1.6929771751e-02    8.1744968750e+04
    1.6939781606e-02    8.1779593750e+04
    1.6949791461e-02    8.1814750000e+04
    1.6959801316e-02    8.1849992188e+04
    1.6969811171e-02    8.1885343750e+04
    1.6979821026e-02    8.1921312500e+04
    1.6989830881e-02    8.1957609375e+04
    1.6999840736e-02    8.1993945312e+04
    1.7009850591e-02    8.2030632812e+04
    1.7019860446e-02    8.2067625000e+04
    1.7029870301e-02    8.2104742188e+04
    1.7039880157e-02    8.2142203125e+04
    1.7049890012e-02    8.2180023438e+04
    1.7059899867e-02    8.2218093750e+04
    1.7069909722e-02    8.2256421875e+04
    1.7079919577e-02    8.2294945312e+04
    1.7089929432e-02    8.2333625000e+04
    1.7099939287e-02    8.2372531250e+04
    1.7109949142e-02    8.2411664062e+04
    1.7119958997e-02    8.2451023438e+04
    1.7129968852e-02    8.2490593750e+04
    1.7139978707e-02    8.2530359375e+04
    1.7149990425e-02    8.2570406250e+04
    1.7160000280e-02    8.2610789062e+04
    1.7169745639e-02    8.2650484375e+04
    1.7179755494e-02    8.2691671875e+04
    1.7189765349e-02    8.2733296875e+04
    1.7199775204e-02    8.2775382812e+04
    1.7209785059e-02    8.2817906250e+04
    1.7219794914e-02    8.2860890625e+04
    1.7229804769e-02    8.2904335938e+04
    1.7239814624e-02    8.2948210938e+04
    1.7249824479e-02    8.2992429688e+04
    1.7259834334e-02    8.3037054688e+04
    1.7269844189e-02    8.3082296875e+04
    1.7279854044e-02    8.3128187500e+04
    1.7289863899e-02    8.3174554688e+04
    1.7299873754e-02    8.3221562500e+04
    1.7309885472e-02    8.3269437500e+04
    1.7319895327e-02    8.3317953125e+04
    1.7329903319e-02    8.3366945312e+04
    1.7339913175e-02    8.3416710938e+04
    1.7349923030e-02    8.3467140625e+04
    1.7359932885e-02    8.3517843750e+04
    1.7369942740e-02    8.3568968750e+04
    1.7379952595e-02    8.3620585938e+04
    1.7389962450e-02    8.3672390625e+04
    1.7399972305e-02    8.3724406250e+04
    1.7409982160e-02    8.3776859375e+04
    1.7419992015e-02    8.3829718750e+04
    1.7429739237e-02    8.3881617188e+04
    1.7439749092e-02    8.3935468750e+04
    1.7449757084e-02    8.3989929688e+04
    1.7459766939e-02    8.4045039062e+04
    1.7469776794e-02    8.4100835938e+04
    1.7479786649e-02    8.4157257812e+04
    1.7489796504e-02    8.4214203125e+04
    1.7499806359e-02    8.4271585938e+04
    1.7509816214e-02    8.4329328125e+04
    1.7519826069e-02    8.4387359375e+04
    1.7529835925e-02    8.4445609375e+04
    1.7539843917e-02    8.4504039062e+04
    1.7549853772e-02    8.4562695312e+04
    1.7559863627e-02    8.4621625000e+04
    1.7569873482e-02    8.4680914062e+04
    1.7579883337e-02    8.4740640625e+04
    1.7589893192e-02    8.4800914062e+04
    1.7599903047e-02    8.4861796875e+04
    1.7609912902e-02    8.4923312500e+04
    1.7619922757e-02    8.4985507812e+04
    1.7629932612e-02    8.5048617188e+04
    1.7639944330e-02    8.5113007812e+04
    1.7649954185e-02    8.5185054688e+04
    1.7659964040e-02    8.5550609375e+04
    1.7669975758e-02    9.1801093750e+04
    1.7679985613e-02    9.5752773438e+04
    1.7689997330e-02    9.6007132812e+04
    1.7699744552e-02    9.5822945312e+04
    1.7709756270e-02    9.5718507812e+04
    1.7719767988e-02    9.5666007812e+04
    1.7729779705e-02    9.5623242188e+04
    1.7739791423e-02    9.5579320312e+04
    1.7749803141e-02    9.5529476562e+04
    1.7759816721e-02    9.5478117188e+04
    1.7769828439e-02    9.5420976562e+04
    1.7779840156e-02    9.5366335938e+04
    1.7789853737e-02    9.5317101562e+04
    1.7799867317e-02    9.5267468750e+04
    1.7809880897e-02    9.5218156250e+04
    1.7819894478e-02    9.5171335938e+04
    1.7829908058e-02    9.5127218750e+04
    1.7839921638e-02    9.5083187500e+04
    1.7849937081e-02    9.5038101562e+04
    1.7859950662e-02    9.4993679688e+04
    1.7869966105e-02    9.4950906250e+04
    1.7879981548e-02    9.4909414062e+04
    1.7889995128e-02    9.4867968750e+04
    1.7899747938e-02    9.4828023438e+04
    1.7909763381e-02    9.4788117188e+04
    1.7919780686e-02    9.4749062500e+04
    1.7929797992e-02    9.4710648438e+04
    1.7939815298e-02    9.4672648438e+04
    1.7949832603e-02    9.4635726562e+04
    1.7959849909e-02    9.4599335938e+04
    1.7969869077e-02    9.4563742188e+04
    1.7979886383e-02    9.4528750000e+04
    1.7989903688e-02    9.4494726562e+04
    1.7999922857e-02    9.4461101562e+04
    1.8009940162e-02    9.4428148438e+04
    1.8019959331e-02    9.4395664062e+04
    1.8029976636e-02    9.4364093750e+04
    1.8039995804e-02    9.4332960938e+04
    1.8049752340e-02    9.4303289062e+04
    1.8059771508e-02    9.4273429688e+04
    1.8069792539e-02    9.4243851562e+04
    1.8079813570e-02    9.4215226562e+04
    1.8089834601e-02    9.4187664062e+04
    1.8099855632e-02    9.4159507812e+04
    1.8109878525e-02    9.4132414062e+04
    1.8119901419e-02    9.4106539062e+04
    1.8129924312e-02    9.4080523438e+04
    1.8139947206e-02    9.4055179688e+04
    1.8149970099e-02    9.4030601562e+04
    1.8159994856e-02    9.4006375000e+04
    1.8169756979e-02    9.3983343750e+04
    1.8179781735e-02    9.3960070312e+04
    1.8189806491e-02    9.3937179688e+04
    1.8199831247e-02    9.3914976562e+04
    1.8209859729e-02    9.3893039062e+04
    1.8219886348e-02    9.3871648438e+04
    1.8229912966e-02    9.3850937500e+04
    1.8239939585e-02    9.3830757812e+04
    1.8249968067e-02    9.3811226562e+04
    1.8259735778e-02    9.3792648438e+04
    1.8269767985e-02    9.3773992188e+04
    1.8279800192e-02    9.3755757812e+04
    1.8289832398e-02    9.3738031250e+04
    1.8299866468e-02    9.3720773438e+04
    1.8309902400e-02    9.3704156250e+04
    1.8319938332e-02    9.3688132812e+04
    1.8329974264e-02    9.3672468750e+04
    1.8339747563e-02    9.3657468750e+04
    1.8349785358e-02    9.3642593750e+04
    1.8359825015e-02    9.3627906250e+04
    1.8369862810e-02    9.3613648438e+04
    1.8379902467e-02    9.3599789062e+04
    1.8389943987e-02    9.3586820312e+04
    1.8399989232e-02    9.3573937500e+04
    1.8409768119e-02    9.3562632812e+04
    1.8419813365e-02    9.3550804688e+04
    1.8429856747e-02    9.3539085938e+04
    1.8439903855e-02    9.3528562500e+04
    1.8449954689e-02    9.3518031250e+04
    1.8459741026e-02    9.3507976562e+04
    1.8469791859e-02    9.3498476562e+04
    1.8479842693e-02    9.3489468750e+04
    1.8489891663e-02    9.3480656250e+04
    1.8499946222e-02    9.3472195312e+04
    1.8509736285e-02    9.3464398438e+04
    1.8519792706e-02    9.3456875000e+04
    1.8529852852e-02    9.3449804688e+04
    1.8539911136e-02    9.3443289062e+04
    1.8549971282e-02    9.3437117188e+04
    1.8559768796e-02    9.3431351562e+04
    1.8569828942e-02    9.3425843750e+04
    1.8579894677e-02    9.3420804688e+04
    1.8589960411e-02    9.3416195312e+04
    1.8599763513e-02    9.3412218750e+04
    1.8609832972e-02    9.3408539062e+04
    1.8619900569e-02    9.3405289062e+04
    1.8629971892e-02    9.3402398438e+04
    1.8639782444e-02    9.3399960938e+04
    1.8649857491e-02    9.3397726562e+04
    1.8659934402e-02    9.3395976562e+04
    1.8669746816e-02    9.3394851562e+04
    1.8679823726e-02    9.3394070312e+04
    1.8689908087e-02    9.3393742188e+04
    1.8699992448e-02    9.3393906250e+04
    1.8709812313e-02    9.3394257812e+04
    1.8719900399e-02    9.3394812500e+04
    1.8729984760e-02    9.3396148438e+04
    1.8739806488e-02    9.3397085938e+04
    1.8749900162e-02    9.3399085938e+04
    1.8759991974e-02    9.3401625000e+04
    1.8769823015e-02    9.3404031250e+04
    1.8779922277e-02    9.3407148438e+04
    1.8789753318e-02    9.3410750000e+04
    1.8799852580e-02    9.3414726562e+04
    1.8809953704e-02    9.3419039062e+04
    1.8819788471e-02    9.3423601562e+04
    1.8829897046e-02    9.3428562500e+04
    1.8839739263e-02    9.3433750000e+04
    1.8849847838e-02    9.3439601562e+04
    1.8859960139e-02    9.3445851562e+04
    1.8869806081e-02    9.3452164062e+04
    1.8879918382e-02    9.3459007812e+04
    1.8889768049e-02    9.3466031250e+04
    1.8899885938e-02    9.3473500000e+04
    1.8909739330e-02    9.3481132812e+04
    1.8919860944e-02    9.3489531250e+04
    1.8929982558e-02    9.3498492188e+04
    1.8939845264e-02    9.3507710938e+04
    1.8949974328e-02    9.3517562500e+04
    1.8959837034e-02    9.3527320312e+04
    1.8969971687e-02    9.3537382812e+04
    1.8979836255e-02    9.3547085938e+04
    1.8989970908e-02    9.3557039062e+04
    1.8999842927e-02    9.3566898438e+04
    1.9009981304e-02    9.3577460938e+04
    1.9019857049e-02    9.3588273438e+04
    1.9029999152e-02    9.3599960938e+04
    1.9039873034e-02    9.3612000000e+04
    1.9049750641e-02    9.3624343750e+04
    1.9059894606e-02    9.3637500000e+04
    1.9069775939e-02    9.3650335938e+04
    1.9079929218e-02    9.3663367188e+04
    1.9089816138e-02    9.3675843750e+04
    1.9099971280e-02    9.3688312500e+04
    1.9109861925e-02    9.3700226562e+04
    1.9119750708e-02    9.3712039062e+04
    1.9129911438e-02    9.3724148438e+04
    1.9139807671e-02    9.3735898438e+04
    1.9149973989e-02    9.3748039062e+04
    1.9159875810e-02    9.3759976562e+04
    1.9169777632e-02    9.3771914062e+04
    1.9179949537e-02    9.3784085938e+04
    1.9189856946e-02    9.3795867188e+04
    1.9199764356e-02    9.3807500000e+04
    1.9209941849e-02    9.3819164062e+04
    1.9219856709e-02    9.3830312500e+04
    1.9229769707e-02    9.3841343750e+04
    1.9239954650e-02    9.3852460938e+04
    1.9249875098e-02    9.3863039062e+04
    1.9259795547e-02    9.3873523438e+04
    1.9269987941e-02    9.3884226562e+04
    1.9279913977e-02    9.3894460938e+04
    1.9289838150e-02    9.3904648438e+04
    1.9299766049e-02    9.3914875000e+04
    1.9309964031e-02    9.3925507812e+04
    1.9319899380e-02    9.3935976562e+04
    1.9329836592e-02    9.3946773438e+04
    1.9339773804e-02    9.3957679688e+04
    1.9349982962e-02    9.3969039062e+04
    1.9359925762e-02    9.3979929688e+04
    1.9369866699e-02    9.3990312500e+04
    1.9379811361e-02    9.3999718750e+04
    1.9389759749e-02    9.4007710938e+04
    1.9399980083e-02    9.4014101562e+04
    1.9409934059e-02    9.4018585938e+04
    1.9419888034e-02    9.4021632812e+04
    1.9429842010e-02    9.4023914062e+04
    1.9439799711e-02    9.4026335938e+04
[...]
    1.1513996869e-01    1.0122196875e+05
    1.1514975131e-01    1.0122196094e+05
    1.1515983939e-01    1.0122196094e+05
    1.1516993493e-01    1.0122196094e+05
    1.1517971754e-01    1.0122194531e+05
    1.1518980563e-01    1.0122193750e+05
    1.1519990116e-01    1.0122193750e+05
    1.1520998925e-01    1.0122192969e+05
    1.1521977186e-01    1.0122191406e+05
    1.1522986740e-01    1.0122191406e+05
    1.1523995548e-01    1.0122191406e+05
    1.1524973810e-01    1.0122190625e+05
    1.1525983363e-01    1.0122189844e+05
    1.1526992172e-01    1.0122189844e+05
    1.1527970433e-01    1.0122189844e+05
    1.1528979987e-01    1.0122188281e+05
    1.1529988796e-01    1.0122187500e+05
    1.1530997604e-01    1.0122187500e+05
    1.1531976610e-01    1.0122186719e+05
    1.1532985419e-01    1.0122185156e+05
    1.1533994228e-01    1.0122185156e+05
    1.1534973234e-01    1.0122185156e+05
    1.1535982043e-01    1.0122184375e+05
    1.1536990851e-01    1.0122183594e+05
    1.1537969857e-01    1.0122183594e+05
    1.1538978666e-01    1.0122183594e+05
    1.1539987475e-01    1.0122182031e+05
    1.1540997028e-01    1.0122182031e+05
    1.1541975290e-01    1.0122181250e+05
    1.1542984098e-01    1.0122180469e+05
    1.1543992907e-01    1.0122178906e+05
    1.1544971913e-01    1.0122178906e+05
    1.1545980722e-01    1.0122178906e+05
    1.1546989530e-01    1.0122178125e+05
    1.1547999084e-01    1.0122178125e+05
    1.1548977345e-01    1.0122177344e+05
    1.1549986154e-01    1.0122177344e+05
    1.1550995708e-01    1.0122175781e+05
    1.1551973969e-01    1.0122175781e+05
    1.1552982777e-01    1.0122175000e+05
    1.1553992331e-01    1.0122174219e+05
    1.1554970592e-01    1.0122174219e+05
    1.1555979401e-01    1.0122172656e+05
    1.1556988955e-01    1.0122172656e+05
    1.1557997763e-01    1.0122171875e+05
    1.1558976024e-01    1.0122171875e+05
    1.1559985578e-01    1.0122171094e+05
    1.1560994387e-01    1.0122171094e+05
    1.1561972648e-01    1.0122171094e+05
    1.1562982202e-01    1.0122169531e+05
    1.1563991010e-01    1.0122168750e+05
    1.1564969271e-01    1.0122168750e+05
    1.1565978825e-01    1.0122167969e+05
    1.1566987634e-01    1.0122166406e+05
    1.1567996442e-01    1.0122166406e+05
    1.1568975449e-01    1.0122166406e+05
    1.1569984257e-01    1.0122165625e+05
    1.1570993066e-01    1.0122164844e+05
    1.1571972072e-01    1.0122164844e+05
    1.1572980881e-01    1.0122164844e+05
    1.1573989689e-01    1.0122163281e+05
    1.1574999243e-01    1.0122162500e+05
    1.1575977504e-01    1.0122162500e+05
    1.1576986313e-01    1.0122161719e+05
    1.1577995867e-01    1.0122160156e+05
    1.1578974128e-01    1.0122160156e+05
    1.1579982936e-01    1.0122160156e+05
    1.1580992490e-01    1.0122159375e+05
    1.1581970751e-01    1.0122159375e+05
    1.1582979560e-01    1.0122158594e+05
    1.1583988369e-01    1.0122158594e+05
    1.1584997922e-01    1.0122157031e+05
    1.1585976183e-01    1.0122157031e+05
    1.1586984992e-01    1.0122156250e+05
    1.1587994546e-01    1.0122155469e+05
    1.1588972807e-01    1.0122155469e+05
    1.1589981616e-01    1.0122153906e+05
    1.1590991169e-01    1.0122153906e+05
    1.1591969430e-01    1.0122153906e+05
    1.1592978239e-01    1.0122153125e+05
    1.1593987793e-01    1.0122152344e+05
    1.1594996601e-01    1.0122152344e+05
    1.1595974863e-01    1.0122152344e+05
    1.1596984416e-01    1.0122150781e+05
    1.1597993225e-01    1.0122150000e+05
    1.1598971486e-01    1.0122150000e+05
    1.1599981040e-01    1.0122149219e+05
    1.1600989848e-01    1.0122147656e+05
    1.1601998657e-01    1.0122147656e+05
    1.1602977663e-01    1.0122147656e+05
    1.1603986472e-01    1.0122146875e+05
    1.1604995281e-01    1.0122146094e+05
    1.1605974287e-01    1.0122146094e+05
    1.1606983095e-01    1.0122146094e+05
    1.1607991904e-01    1.0122144531e+05
    1.1608970910e-01    1.0122144531e+05
    1.1609979719e-01    1.0122143750e+05
    1.1610988528e-01    1.0122142969e+05
    1.1611998081e-01    1.0122141406e+05
    1.1612976342e-01    1.0122141406e+05
    1.1613985151e-01    1.0122141406e+05
    1.1614994705e-01    1.0122140625e+05
    1.1615972966e-01    1.0122140625e+05
    1.1616981775e-01    1.0122139844e+05
    1.1617991328e-01    1.0122139844e+05
    1.1618969589e-01    1.0122138281e+05
    1.1619978398e-01    1.0122137500e+05
    1.1620987952e-01    1.0122137500e+05
    1.1621996760e-01    1.0122136719e+05
    1.1622975022e-01    1.0122135156e+05
    1.1623983830e-01    1.0122135156e+05
    1.1624993384e-01    1.0122135156e+05
    1.1625971645e-01    1.0122134375e+05
    1.1626980454e-01    1.0122134375e+05
    1.1627990007e-01    1.0122133594e+05
    1.1628998816e-01    1.0122133594e+05
    1.1629977077e-01    1.0122133594e+05
    1.1630986631e-01    1.0122132031e+05
    1.1631995440e-01    1.0122132031e+05
    1.1632973701e-01    1.0122131250e+05
    1.1633983254e-01    1.0122130469e+05
    1.1634992063e-01    1.0122128906e+05
    1.1635970324e-01    1.0122128906e+05
    1.1636979878e-01    1.0122128906e+05
    1.1637988687e-01    1.0122128125e+05
    1.1638997495e-01    1.0122127344e+05
    1.1639976501e-01    1.0122127344e+05
    1.1640985310e-01    1.0122127344e+05
    1.1641994119e-01    1.0122125781e+05
    1.1642973125e-01    1.0122125000e+05
    1.1643981934e-01    1.0122125000e+05
    1.1644990742e-01    1.0122124219e+05
    1.1645969748e-01    1.0122122656e+05
    1.1646978557e-01    1.0122122656e+05
    1.1647987366e-01    1.0122122656e+05
    1.1648996919e-01    1.0122122656e+05
    1.1649975181e-01    1.0122121875e+05
    1.1650983989e-01    1.0122121094e+05
    1.1651993543e-01    1.0122121094e+05
    1.1652971804e-01    1.0122121094e+05
    1.1653980613e-01    1.0122119531e+05
    1.1654990166e-01    1.0122118750e+05
    1.1655998975e-01    1.0122117969e+05
    1.1656977236e-01    1.0122117969e+05
    1.1657986790e-01    1.0122116406e+05
    1.1658995599e-01    1.0122116406e+05
    1.1659973860e-01    1.0122116406e+05
    1.1660983413e-01    1.0122115625e+05
    1.1661992222e-01    1.0122114844e+05
    1.1662970483e-01    1.0122114844e+05
    1.1663980037e-01    1.0122114844e+05
    1.1664988846e-01    1.0122114844e+05
    1.1665997654e-01    1.0122113281e+05
    1.1666976660e-01    1.0122112500e+05
    1.1667985469e-01    1.0122112500e+05
    1.1668994278e-01    1.0122111719e+05
    1.1669973284e-01    1.0122110156e+05
    1.1670982093e-01    1.0122110156e+05
    1.1671990901e-01    1.0122110156e+05
    1.1672969908e-01    1.0122109375e+05
    1.1673978716e-01    1.0122108594e+05
    1.1674987525e-01    1.0122108594e+05
    1.1675997078e-01    1.0122108594e+05
    1.1676975340e-01    1.0122107031e+05
    1.1677984148e-01    1.0122107031e+05
    1.1678993702e-01    1.0122106250e+05
    1.1679971963e-01    1.0122105469e+05
    1.1680980772e-01    1.0122105469e+05
    1.1681990325e-01    1.0122103906e+05
    1.1682999134e-01    1.0122103906e+05
    1.1683977395e-01    1.0122103906e+05
    1.1684986204e-01    1.0122103125e+05
    1.1685995758e-01    1.0122102344e+05
    1.1686974019e-01    1.0122102344e+05
    1.1687982827e-01    1.0122102344e+05
    1.1688992381e-01    1.0122100781e+05
    1.1689970642e-01    1.0122100781e+05
    1.1690979451e-01    1.0122100000e+05
    1.1691989005e-01    1.0122099219e+05
    1.1692997813e-01    1.0122099219e+05
    1.1693976074e-01    1.0122097656e+05
    1.1694985628e-01    1.0122097656e+05
    1.1695994437e-01    1.0122097656e+05
    1.1696972698e-01    1.0122096875e+05
    1.1697982252e-01    1.0122096875e+05
    1.1698991060e-01    1.0122096094e+05
    1.1699969321e-01    1.0122096094e+05
    1.1700978875e-01    1.0122096094e+05
    1.1701987684e-01    1.0122094531e+05
    1.1702996492e-01    1.0122093750e+05
    1.1703975499e-01    1.0122092969e+05
    1.1704984307e-01    1.0122091406e+05
    1.1705993116e-01    1.0122091406e+05
    1.1706972122e-01    1.0122091406e+05
    1.1707980931e-01    1.0122090625e+05
    1.1708989739e-01    1.0122090625e+05
    1.1709999293e-01    1.0122089844e+05
    1.1710977554e-01    1.0122089844e+05
    1.1711986363e-01    1.0122089844e+05
    1.1712995917e-01    1.0122088281e+05
    1.1713974178e-01    1.0122088281e+05
    1.1714982986e-01    1.0122087500e+05
    1.1715992540e-01    1.0122086719e+05
    1.1716970801e-01    1.0122086719e+05
    1.1717979610e-01    1.0122085156e+05
    1.1718989164e-01    1.0122085156e+05
    1.1719997972e-01    1.0122084375e+05
    1.1720976233e-01    1.0122083594e+05
    1.1721985787e-01    1.0122083594e+05
    1.1722994596e-01    1.0122083594e+05
    1.1723972857e-01    1.0122082031e+05
    1.1724982411e-01    1.0122082031e+05
    1.1725991219e-01    1.0122081250e+05
    1.1726969481e-01    1.0122081250e+05
    1.1727979034e-01    1.0122080469e+05
    1.1728987843e-01    1.0122078906e+05
    1.1729996651e-01    1.0122078906e+05
    1.1730975658e-01    1.0122078906e+05
    1.1731984466e-01    1.0122078125e+05
    1.1732993275e-01    1.0122077344e+05
    1.1733972281e-01    1.0122077344e+05
    1.1734981090e-01    1.0122077344e+05
    1.1735989898e-01    1.0122075781e+05
    1.1736999452e-01    1.0122075000e+05
    1.1737977713e-01    1.0122075000e+05
    1.1738986522e-01    1.0122074219e+05
    1.1739996076e-01    1.0122072656e+05
    1.1740974337e-01    1.0122072656e+05
    1.1741983145e-01    1.0122072656e+05
    1.1742992699e-01    1.0122072656e+05
    1.1743970960e-01    1.0122071875e+05
    1.1744979769e-01    1.0122071094e+05
    1.1745989323e-01    1.0122071094e+05
    1.1746998131e-01    1.0122071094e+05
    1.1747976393e-01    1.0122069531e+05
    1.1748985946e-01    1.0122069531e+05
    1.1749994755e-01    1.0122068750e+05
    1.1750973016e-01    1.0122067969e+05
    1.1751982570e-01    1.0122066406e+05
    1.1752991378e-01    1.0122066406e+05
    1.1753969640e-01    1.0122065625e+05
    1.1754979193e-01    1.0122064844e+05
    1.1755988002e-01    1.0122064844e+05
    1.1756996810e-01    1.0122063281e+05
    1.1757975817e-01    1.0122062500e+05
    1.1758984625e-01    1.0122061719e+05
    1.1759993434e-01    1.0122060156e+05
    1.1760972440e-01    1.0122060156e+05
    1.1761981249e-01    1.0122060156e+05
    1.1762990057e-01    1.0122060156e+05
    1.1763999611e-01    1.0122060156e+05
    1.1764977872e-01    1.0122060156e+05
    1.1765986681e-01    1.0122059375e+05
    1.1766996235e-01    1.0122059375e+05
    1.1767974496e-01    1.0122058594e+05
    1.1768983305e-01    1.0122058594e+05
    1.1769992858e-01    1.0122057031e+05
    1.1770971119e-01    1.0122057031e+05
    1.1771979928e-01    1.0122056250e+05
    1.1772988737e-01    1.0122056250e+05
    1.1773998290e-01    1.0122055469e+05
    1.1774976552e-01    1.0122055469e+05
    1.1775985360e-01    1.0122055469e+05
    1.1776994914e-01    1.0122055469e+05
    1.1777973175e-01    1.0122055469e+05
    1.1778981984e-01    1.0122055469e+05
    1.1779991537e-01    1.0122055469e+05
    1.1780969799e-01    1.0122055469e+05
    1.1781978607e-01    1.0122053906e+05
    1.1782988161e-01    1.0122053906e+05
    1.1783996969e-01    1.0122053906e+05
    1.1784975231e-01    1.0122053125e+05
    1.1785984784e-01    1.0122052344e+05
    1.1786993593e-01    1.0122052344e+05
    1.1787971854e-01    1.0122050000e+05
    1.1788981408e-01    1.0122049219e+05
    1.1789990216e-01    1.0122047656e+05
    1.1790999025e-01    1.0122047656e+05
    1.1791978031e-01    1.0122046875e+05
    1.1792986840e-01    1.0122046875e+05
    1.1793995649e-01    1.0122046094e+05
    1.1794974655e-01    1.0122046094e+05
    1.1795983464e-01    1.0122046094e+05
    1.1796992272e-01    1.0122046094e+05
    1.1797971278e-01    1.0122044531e+05
    1.1798980087e-01    1.0122043750e+05
    1.1799988896e-01    1.0122042969e+05
    1.1800998449e-01    1.0122041406e+05
    1.1801976711e-01    1.0122040625e+05
    1.1802985519e-01    1.0122039844e+05
    1.1803995073e-01    1.0122038281e+05
    1.1804973334e-01    1.0122037500e+05
    1.1805982143e-01    1.0122036719e+05
    1.1806991696e-01    1.0122036719e+05
    1.1807969958e-01    1.0122036719e+05
    1.1808978766e-01    1.0122036719e+05
    1.1809988320e-01    1.0122036719e+05
    1.1810997128e-01    1.0122036719e+05
    1.1811975390e-01    1.0122036719e+05
    1.1812984943e-01    1.0122036719e+05
    1.1813993752e-01    1.0122036719e+05
    1.1814972013e-01    1.0122036719e+05
    1.1815981567e-01    1.0122036719e+05
    1.1816990376e-01    1.0122035156e+05
    1.1817999184e-01    1.0122035156e+05
    1.1818978190e-01    1.0122034375e+05
    1.1819986999e-01    1.0122033594e+05
    1.1820995808e-01    1.0122033594e+05
    1.1821974814e-01    1.0122031250e+05
    1.1822983623e-01    1.0122030469e+05
    1.1823992431e-01    1.0122028906e+05
    1.1824971437e-01    1.0122028906e+05
    1.1825980246e-01    1.0122027344e+05
    1.1826989055e-01    1.0122027344e+05
    1.1827998608e-01    1.0122027344e+05
    1.1828976870e-01    1.0122027344e+05
    1.1829985678e-01    1.0122025781e+05
    1.1830995232e-01    1.0122025781e+05
    1.1831973493e-01    1.0122025781e+05
    1.1832982302e-01    1.0122025781e+05
    1.1833991855e-01    1.0122025781e+05
    1.1834970117e-01    1.0122025000e+05
    1.1835978925e-01    1.0122025000e+05
    1.1836988479e-01    1.0122024219e+05
    1.1837997288e-01    1.0122022656e+05
    1.1838975549e-01    1.0122022656e+05
    1.1839985102e-01    1.0122021875e+05
    1.1840993911e-01    1.0122021094e+05
    1.1841972172e-01    1.0122021094e+05
    1.1842981726e-01    1.0122019531e+05
    1.1843990535e-01    1.0122019531e+05
    1.1844999343e-01    1.0122018750e+05
    1.1845978349e-01    1.0122018750e+05
    1.1846987158e-01    1.0122018750e+05
    1.1847995967e-01    1.0122018750e+05
    1.1848974973e-01    1.0122018750e+05
    1.1849983782e-01    1.0122018750e+05
    1.1850992590e-01    1.0122017969e+05
    1.1851971596e-01    1.0122017969e+05
    1.1852980405e-01    1.0122016406e+05
    1.1853989214e-01    1.0122015625e+05
    1.1854998767e-01    1.0122014844e+05
    1.1855977029e-01    1.0122014844e+05
    1.1856985837e-01    1.0122013281e+05
    1.1857995391e-01    1.0122012500e+05
    1.1858973652e-01    1.0122011719e+05
    1.1859982461e-01    1.0122011719e+05
    1.1860992014e-01    1.0122010156e+05
    1.1861970276e-01    1.0122010156e+05
    1.1862979084e-01    1.0122010156e+05
    1.1863988638e-01    1.0122010156e+05
    1.1864997447e-01    1.0122010156e+05
    1.1865975708e-01    1.0122010156e+05
    1.1866984516e-01    1.0122009375e+05
    1.1867994070e-01    1.0122008594e+05
    1.1868972331e-01    1.0122008594e+05
    1.1869981140e-01    1.0122007031e+05
    1.1870990694e-01    1.0122006250e+05
    1.1871999502e-01    1.0122005469e+05
    1.1872977763e-01    1.0122005469e+05
    1.1873987317e-01    1.0122003906e+05
    1.1874996126e-01    1.0122003906e+05
    1.1875974387e-01    1.0122003906e+05
    1.1876983941e-01    1.0122003906e+05
    1.1877992749e-01    1.0122003125e+05
    1.1878971010e-01    1.0122003125e+05
    1.1879980564e-01    1.0122002344e+05
    1.1880989373e-01    1.0122002344e+05
    1.1881998181e-01    1.0122002344e+05
    1.1882977188e-01    1.0122000781e+05
    1.1883985996e-01    1.0122000000e+05
    1.1884994805e-01    1.0122000000e+05
    1.1885973811e-01    1.0121999219e+05
    1.1886982620e-01    1.0121999219e+05
    1.1887991428e-01    1.0121997656e+05
    1.1888970435e-01    1.0121997656e+05
    1.1889979243e-01    1.0121997656e+05
    1.1890988052e-01    1.0121996875e+05
    1.1891997606e-01    1.0121996094e+05
    1.1892975867e-01    1.0121996094e+05
    1.1893984675e-01    1.0121996094e+05
    1.1894994229e-01    1.0121996094e+05
    1.1895972490e-01    1.0121994531e+05
    1.1896981299e-01    1.0121993750e+05
    1.1897990853e-01    1.0121993750e+05
    1.1898999661e-01    1.0121992969e+05
    1.1899977922e-01    1.0121991406e+05
    1.1900987476e-01    1.0121991406e+05
    1.1901996285e-01    1.0121991406e+05
    1.1902974546e-01    1.0121990625e+05
    1.1903984100e-01    1.0121989844e+05
    1.1904992908e-01    1.0121989844e+05
    1.1905971169e-01    1.0121989844e+05
    1.1906980723e-01    1.0121989844e+05
    1.1907989532e-01    1.0121988281e+05
    1.1908998340e-01    1.0121987500e+05
    1.1909977347e-01    1.0121987500e+05
    1.1910986155e-01    1.0121986719e+05
    1.1911994964e-01    1.0121986719e+05
    1.1912973970e-01    1.0121985156e+05
    1.1913982779e-01    1.0121985156e+05
    1.1914991587e-01    1.0121985156e+05
    1.1915970594e-01    1.0121984375e+05
    1.1916979402e-01    1.0121983594e+05
    1.1917988211e-01    1.0121983594e+05
    1.1918997765e-01    1.0121983594e+05
    1.1919976026e-01    1.0121983594e+05
    1.1920984834e-01    1.0121982031e+05
    1.1921994388e-01    1.0121981250e+05
    1.1922972649e-01    1.0121981250e+05
    1.1923981458e-01    1.0121980469e+05
    1.1924991012e-01    1.0121978906e+05
    1.1925999820e-01    1.0121978906e+05
    1.1926978081e-01    1.0121978906e+05
    1.1927987635e-01    1.0121978906e+05
    1.1928996444e-01    1.0121978125e+05
    1.1929974705e-01    1.0121977344e+05
    1.1930984259e-01    1.0121977344e+05
    1.1931993067e-01    1.0121977344e+05
    1.1932971328e-01    1.0121975781e+05
    1.1933980882e-01    1.0121975781e+05
    1.1934989691e-01    1.0121975000e+05
    1.1935998499e-01    1.0121975000e+05
    1.1936977506e-01    1.0121974219e+05
    1.1937986314e-01    1.0121972656e+05
    1.1938995123e-01    1.0121972656e+05
    1.1939974129e-01    1.0121972656e+05
    1.1940982938e-01    1.0121971875e+05
    1.1941991746e-01    1.0121971875e+05
    1.1942970753e-01    1.0121971094e+05
    1.1943979561e-01    1.0121971094e+05
    1.1944988370e-01    1.0121971094e+05
    1.1945997924e-01    1.0121969531e+05
    1.1946976185e-01    1.0121969531e+05
    1.1947984993e-01    1.0121968750e+05
    1.1948994547e-01    1.0121967969e+05
    1.1949972808e-01    1.0121967969e+05
    1.1950981617e-01    1.0121966406e+05
    1.1951991171e-01    1.0121966406e+05
    1.1952999979e-01    1.0121966406e+05
    1.1953978240e-01    1.0121965625e+05
    1.1954987794e-01    1.0121965625e+05
    1.1955996603e-01    1.0121964844e+05
    1.1956974864e-01    1.0121964844e+05
    1.1957984418e-01    1.0121964844e+05
    1.1958993226e-01    1.0121963281e+05
    1.1959971488e-01    1.0121963281e+05
    1.1960981041e-01    1.0121962500e+05
    1.1961989850e-01    1.0121961719e+05
    1.1962998658e-01    1.0121961719e+05
    1.1963977665e-01    1.0121960156e+05
    1.1964986473e-01    1.0121960156e+05
    1.1965995282e-01    1.0121960156e+05
    1.1966974288e-01    1.0121959375e+05
    1.1967983097e-01    1.0121959375e+05
    1.1968991905e-01    1.0121958594e+05
    1.1969970912e-01    1.0121958594e+05
    1.1970979720e-01    1.0121958594e+05
    1.1971988529e-01    1.0121957031e+05
    1.1972998083e-01    1.0121957031e+05
    1.1973976344e-01    1.0121956250e+05
    1.1974985152e-01    1.0121955469e+05
    1.1975994706e-01    1.0121955469e+05
    1.1976972967e-01    1.0121953906e+05
    1.1977981776e-01    1.0121953906e+05
    1.1978991330e-01    1.0121953906e+05
    1.1979969591e-01    1.0121953125e+05
    1.1980978400e-01    1.0121953125e+05
    1.1981987953e-01    1.0121952344e+05
    1.1982996762e-01    1.0121952344e+05
    1.1983975023e-01    1.0121952344e+05
    1.1984984577e-01    1.0121950781e+05
    1.1985993385e-01    1.0121950000e+05
    1.1986971647e-01    1.0121950000e+05
    1.1987981200e-01    1.0121949219e+05
    1.1988990009e-01    1.0121949219e+05
    1.1989998817e-01    1.0121947656e+05
    1.1990977824e-01    1.0121947656e+05
    1.1991986632e-01    1.0121947656e+05
    1.1992995441e-01    1.0121946875e+05
    1.1993974447e-01    1.0121946094e+05
    1.1994983256e-01    1.0121946094e+05
    1.1995992064e-01    1.0121946094e+05
    1.1996971071e-01    1.0121946094e+05
    1.1997979879e-01    1.0121944531e+05
    1.1998988688e-01    1.0121943750e+05
    1.1999998242e-01    1.0121943750e+05
endcurve
