Curveplot
LS-DYNA keyword deck by LS-PrePost                          
Time
Pressure
Defined Connection
Pressure @ 53 #pts=14001
* Minval=     9.9506835938e+04 at time=         0.0819198489
* Maxval=     1.0456203125e+05 at time=         0.0722797662
    0.0000000000e+00    1.0120000000e+05
    9.9882508948e-06    1.0120000000e+05
    1.9994909962e-05    1.0120000000e+05
    2.9962213375e-05    1.0120000000e+05
    3.9931375795e-05    1.0120000000e+05
    4.9980884796e-05    1.0120000000e+05
    5.9961399529e-05    1.0120000000e+05
    6.9973961217e-05    1.0120000000e+05
    7.9970617662e-05    1.0120000000e+05
    8.9999666670e-05    1.0120000000e+05
    9.9939301435e-05    1.0120000000e+05
    1.0993193428e-04    1.0120000000e+05
    1.1995249952e-04    1.0120000000e+05
    1.2995548605e-04    1.0120000000e+05
    1.3999508519e-04    1.0120000000e+05
    1.4996530081e-04    1.0120000000e+05
    1.5995698050e-04    1.0120000000e+05
    1.6996386694e-04    1.0120000000e+05
    1.7997964460e-04    1.0120000000e+05
    1.8999738677e-04    1.0120000000e+05
    1.9989676366e-04    1.0120000000e+05
    2.0989564655e-04    1.0120000000e+05
    2.1999391902e-04    1.0120000000e+05
    2.2994875326e-04    1.0120000000e+05
    2.3999201949e-04    1.0120000000e+05
    2.4999745074e-04    1.0120000000e+05
    2.5995681062e-04    1.0120000000e+05
    2.6999338297e-04    1.0120000000e+05
    2.7997154393e-04    1.0120000000e+05
    2.8988198028e-04    1.0120000000e+05
    2.9999460094e-04    1.0120000000e+05
    3.0988821527e-04    1.0120000000e+05
    3.1998119084e-04    1.0120000000e+05
    3.2998292590e-04    1.0120000000e+05
    3.3988233190e-04    1.0120000000e+05
    3.4997650073e-04    1.0120000000e+05
    3.5995669896e-04    1.0120000000e+05
    3.6997135612e-04    1.0120000000e+05
    3.7985344534e-04    1.0120000000e+05
    3.8992325426e-04    1.0120000000e+05
    3.9984623436e-04    1.0120000000e+05
    4.0995504241e-04    1.0120000000e+05
    4.1990290629e-04    1.0120000000e+05
    4.2985563050e-04    1.0120000000e+05
    4.3999118498e-04    1.0120000000e+05
    4.4994283235e-04    1.0120000000e+05
    4.5988528291e-04    1.0120000000e+05
    4.6981309424e-04    1.0120000000e+05
    4.7991774045e-04    1.0120000000e+05
    4.8980547581e-04    1.0120000000e+05
    4.9986719387e-04    1.0120000000e+05
    5.0990108866e-04    1.0120000000e+05
    5.1990197971e-04    1.0120000000e+05
    5.2986358060e-04    1.0120000000e+05
    5.3999782540e-04    1.0120000000e+05
    5.4986739997e-04    1.0120000000e+05
    5.5990595138e-04    1.0120000000e+05
    5.6989066070e-04    1.0120000000e+05
    5.7981372811e-04    1.0120000000e+05
    5.8990967227e-04    1.0120000000e+05
    5.9993745526e-04    1.0120000000e+05
    6.0989375925e-04    1.0120000000e+05
    6.1977526639e-04    1.0120000000e+05
    6.2982516829e-04    1.0120000000e+05
    6.3979119295e-04    1.0120000000e+05
    6.4992834814e-04    1.0120000000e+05
    6.5997696947e-04    1.0120000000e+05
    6.6992914071e-04    1.0120000000e+05
    6.7977618892e-04    1.0120000000e+05
    6.8979262142e-04    1.0120000000e+05
    6.9998303661e-04    1.0120000000e+05
    7.0977362338e-04    1.0120000000e+05
    7.1973231388e-04    1.0120000000e+05
    7.2986481246e-04    1.0120000000e+05
    7.3987228097e-04    1.0120000000e+05
    7.4974587187e-04    1.0120000000e+05
    7.5979286339e-04    1.0120000000e+05
    7.6969753718e-04    1.0120000000e+05
    7.7977799810e-04    1.0120000000e+05
    7.8970787581e-04    1.0120000000e+05
    7.9981685849e-04    1.0120000000e+05
    8.0976600293e-04    1.0120000000e+05
    8.1989669707e-04    1.0120000000e+05
    8.2985823974e-04    1.0120000000e+05
    8.3963887300e-04    1.0120000000e+05
    8.4997114027e-04    1.0120000000e+05
    8.5974583635e-04    1.0120000000e+05
    8.6970278062e-04    1.0120000000e+05
    8.7985006394e-04    1.0120000000e+05
    8.8979530847e-04    1.0120000000e+05
    8.9993374422e-04    1.0120000000e+05
    9.0985768475e-04    1.0120000000e+05
    9.1997848358e-04    1.0120000000e+05
    9.2987081734e-04    1.0120000000e+05
    9.3992828624e-04    1.0120000000e+05
    9.4963907031e-04    1.0120000000e+05
    9.5987401437e-04    1.0120000000e+05
    9.6971006133e-04    1.0120000000e+05
    9.7997265402e-04    1.0120000000e+05
    9.8981999326e-04    1.0120000000e+05
    9.9963496905e-04    1.0120000000e+05
    1.0099208448e-03    1.0120000000e+05
    1.0197241791e-03    1.0120000000e+05
    1.0299980640e-03    1.0120000000e+05
    1.0397717124e-03    1.0120000000e+05
    1.0495763272e-03    1.0120000000e+05
    1.0598939843e-03    1.0120000000e+05
    1.0697790422e-03    1.0120000000e+05
    1.0797113646e-03    1.0120000000e+05
    1.0896956082e-03    1.0120000000e+05
    1.0997034842e-03    1.0120000000e+05
    1.1097141542e-03    1.0120000000e+05
    1.1197144631e-03    1.0120000000e+05
    1.1296977755e-03    1.0120000000e+05
    1.1396117043e-03    1.0120000000e+05
    1.1498611420e-03    1.0120000000e+05
    1.1599556310e-03    1.0120000000e+05
    1.1698864400e-03    1.0120000000e+05
    1.1796584586e-03    1.0120000000e+05
    1.1896918295e-03    1.0120000000e+05
    1.1999713024e-03    1.0120000000e+05
    1.2096788269e-03    1.0120000000e+05
    1.2196282623e-03    1.0120000000e+05
    1.2298048241e-03    1.0120000000e+05
    1.2398113031e-03    1.0120000000e+05
    1.2496525887e-03    1.0120000000e+05
    1.2597010937e-03    1.0120000000e+05
    1.2699418003e-03    1.0120000000e+05
    1.2796469964e-03    1.0120000000e+05
    1.2898887508e-03    1.0120000000e+05
    1.2999461032e-03    1.0120000000e+05
    1.3098211493e-03    1.0120000000e+05
    1.3198488159e-03    1.0120000000e+05
    1.3296876568e-03    1.0120000000e+05
    1.3399770251e-03    1.0120000000e+05
    1.3497449690e-03    1.0120000000e+05
    1.3599290978e-03    1.0120000000e+05
    1.3698940165e-03    1.0120000000e+05
    1.3799325097e-03    1.0120000000e+05
    1.3897401514e-03    1.0120000000e+05
    1.3998731738e-03    1.0120000000e+05
    1.4097465901e-03    1.0120000000e+05
    1.4198847348e-03    1.0120000000e+05
    1.4299841132e-03    1.0120000000e+05
    1.4397692867e-03    1.0120000000e+05
    1.4499484096e-03    1.0120000000e+05
    1.4599740971e-03    1.0120000000e+05
    1.4698036248e-03    1.0120000000e+05
    1.4798014890e-03    1.0120000000e+05
    1.4898321824e-03    1.0120000000e+05
    1.4999022242e-03    1.0120000000e+05
    1.5098829754e-03    1.0120000000e+05
    1.5199194895e-03    1.0120000000e+05
    1.5299663646e-03    1.0120000000e+05
    1.5398936812e-03    1.0120000000e+05
    1.5499750152e-03    1.0120000000e+05
    1.5597908059e-03    1.0120000000e+05
    1.5699702781e-03    1.0120000000e+05
    1.5798785025e-03    1.0120000000e+05
    1.5898902202e-03    1.0120000000e+05
    1.5999634052e-03    1.0120000000e+05
    1.6099213390e-03    1.0120000000e+05
    1.6198166413e-03    1.0120000000e+05
    1.6298260307e-03    1.0120000000e+05
    1.6399321612e-03    1.0120000000e+05
    1.6499930061e-03    1.0120000000e+05
    1.6598289367e-03    1.0120000000e+05
    1.6698539257e-03    1.0120000000e+05
    1.6798774013e-03    1.0120000000e+05
    1.6898500035e-03    1.0120000000e+05
    1.6997992061e-03    1.0120000000e+05
    1.7099461984e-03    1.0120000000e+05
    1.7197962152e-03    1.0120000000e+05
    1.7298577586e-03    1.0120000000e+05
    1.7398705240e-03    1.0120000000e+05
    1.7498120433e-03    1.0120000000e+05
    1.7599858111e-03    1.0120000000e+05
    1.7697711010e-03    1.0120000000e+05
    1.7798192566e-03    1.0120000000e+05
    1.7899718368e-03    1.0120000000e+05
    1.7999125412e-03    1.0120000000e+05
    1.8098813016e-03    1.0120000000e+05
    1.8199612387e-03    1.0120000000e+05
    1.8297814531e-03    1.0120000000e+05
    1.8399509136e-03    1.0120000000e+05
    1.8498898717e-03    1.0120000000e+05
    1.8598963507e-03    1.0120000000e+05
    1.8699337961e-03    1.0120000000e+05
    1.8797320081e-03    1.0120000000e+05
    1.8898636336e-03    1.0120000000e+05
    1.8997451989e-03    1.0120000000e+05
    1.9099357305e-03    1.0120000000e+05
    1.9198696828e-03    1.0120000000e+05
    1.9298332045e-03    1.0120000000e+05
    1.9398132572e-03    1.0120000000e+05
    1.9498076290e-03    1.0120000000e+05
    1.9598104991e-03    1.0120000000e+05
    1.9698301330e-03    1.0120000000e+05
    1.9798597787e-03    1.0120000000e+05
    1.9899008330e-03    1.0120000000e+05
    1.9999437500e-03    1.0120000000e+05
    2.0097175147e-03    1.0120000000e+05
    2.0197946578e-03    1.0120000000e+05
    2.0298836753e-03    1.0120000000e+05
    2.0399815403e-03    1.0120000000e+05
    2.0498072263e-03    1.0120000000e+05
    2.0599430427e-03    1.0120000000e+05
    2.0698015578e-03    1.0120000000e+05
    2.0799750928e-03    1.0120000000e+05
    2.0898655057e-03    1.0120000000e+05
    2.0997694228e-03    1.0120000000e+05
    2.1099916194e-03    1.0120000000e+05
    2.1199400071e-03    1.0120000000e+05
    2.1299023647e-03    1.0120000000e+05
    2.1398796234e-03    1.0120000000e+05
    2.1498743445e-03    1.0120000000e+05
    2.1598760504e-03    1.0120000000e+05
    2.1699047647e-03    1.0120000000e+05
    2.1799497772e-03    1.0120000000e+05
    2.1897135302e-03    1.0120000000e+05
    2.1997846197e-03    1.0120000000e+05
    2.2098710760e-03    1.0120000000e+05
    2.2199719679e-03    1.0120000000e+05
    2.2297832184e-03    1.0120000000e+05
    2.2399171721e-03    1.0120000000e+05
    2.2497584578e-03    1.0120000000e+05
    2.2599140648e-03    1.0120000000e+05
    2.2697765380e-03    1.0120000000e+05
    2.2799605504e-03    1.0120000000e+05
    2.2898421157e-03    1.0120000000e+05
    2.2997392807e-03    1.0120000000e+05
    2.3099523969e-03    1.0120000000e+05
    2.3198821582e-03    1.0120000000e+05
    2.3298191372e-03    1.0120000000e+05
    2.3397626355e-03    1.0120000000e+05
    2.3497065995e-03    1.0120000000e+05
    2.3599488195e-03    1.0120000000e+05
    2.3699288722e-03    1.0120000000e+05
    2.3799350020e-03    1.0120000000e+05
    2.3899408989e-03    1.0120000000e+05
    2.3999346886e-03    1.0120000000e+05
    2.4099380244e-03    1.0120000000e+05
    2.4199399631e-03    1.0120000000e+05
    2.4299449287e-03    1.0120000000e+05
    2.4399594404e-03    1.0120000000e+05
    2.4499834981e-03    1.0120000000e+05
    2.4599968456e-03    1.0120000000e+05
    2.4697219487e-03    1.0120000000e+05
    2.4797655642e-03    1.0120000000e+05
    2.4898059200e-03    1.0120000000e+05
    2.4998330045e-03    1.0120000000e+05
    2.5098915212e-03    1.0120000000e+05
    2.5199581869e-03    1.0120000000e+05
    2.5297023822e-03    1.0120000000e+05
    2.5397499558e-03    1.0120000000e+05
    2.5498387404e-03    1.0120000000e+05
    2.5599289220e-03    1.0120000000e+05
    2.5697061792e-03    1.0120000000e+05
    2.5798047427e-03    1.0120000000e+05
    2.5899098255e-03    1.0120000000e+05
    2.5997187477e-03    1.0120000000e+05
    2.6098371018e-03    1.0120000000e+05
    2.6199615095e-03    1.0120000000e+05
    2.6297627483e-03    1.0120000000e+05
    2.6398974005e-03    1.0120000000e+05
    2.6497540530e-03    1.0120000000e+05
    2.6599164121e-03    1.0120000000e+05
    2.6697558351e-03    1.0120000000e+05
    2.6799074840e-03    1.0120000000e+05
    2.6897725184e-03    1.0120000000e+05
    2.6999558322e-03    1.0120000000e+05
    2.7098264545e-03    1.0120000000e+05
    2.7196959127e-03    1.0120000000e+05
    2.7298743371e-03    1.0120000000e+05
    2.7397554368e-03    1.0120000000e+05
    2.7499459684e-03    1.0120000000e+05
    2.7598242741e-03    1.0120000000e+05
    2.7697018813e-03    1.0120000000e+05
    2.7798963711e-03    1.0120000000e+05
    2.7897816617e-03    1.0120000000e+05
    2.7999719605e-03    1.0120000000e+05
    2.8098574840e-03    1.0120000000e+05
    2.8197455686e-03    1.0120000000e+05
    2.8299393598e-03    1.0120000000e+05
    2.8398248833e-03    1.0120000000e+05
    2.8497157618e-03    1.0120000000e+05
    2.8599158395e-03    1.0120000000e+05
    2.8698034585e-03    1.0120000000e+05
    2.8796915431e-03    1.0120000000e+05
    2.8898918536e-03    1.0120000000e+05
    2.8997824993e-03    1.0120000000e+05
    2.9099786188e-03    1.0120000000e+05
    2.9198692646e-03    1.0120000000e+05
    2.9297715519e-03    1.0120000000e+05
    2.9399776831e-03    1.0120000000e+05
    2.9498746153e-03    1.0120000000e+05
    2.9597857501e-03    1.0120000000e+05
    2.9697031714e-03    1.0120000000e+05
    2.9799202457e-03    1.0120000000e+05
    2.9898385983e-03    1.0120000000e+05
    2.9997786041e-03    1.0120000000e+05
    3.0097230338e-03    1.0120000000e+05
    3.0199815519e-03    1.0120000000e+05
    3.0299443752e-03    1.0120000000e+05
    3.0399130192e-03    1.0120000000e+05
    3.0498818960e-03    1.0120000000e+05
    3.0598624144e-03    1.0120000000e+05
    3.0698599294e-03    1.0120000000e+05
    3.0798625667e-03    1.0120000000e+05
    3.0898719560e-03    1.0120000000e+05
    3.0998948496e-03    1.0120000000e+05
    3.1099254265e-03    1.0120000000e+05
    3.1199639197e-03    1.0120000000e+05
    3.1296995003e-03    1.0120000000e+05
    3.1397608109e-03    1.0120000000e+05
    3.1498279423e-03    1.0120000000e+05
    3.1599011272e-03    1.0120000000e+05
    3.1699917745e-03    1.0120000000e+05
    3.1797774136e-03    1.0120000000e+05
    3.1898815650e-03    1.0120000000e+05
    3.1999936327e-03    1.0120000000e+05
    3.2098069787e-03    1.0120000000e+05
    3.2199446578e-03    1.0120000000e+05
    3.2297696453e-03    1.0120000000e+05
    3.2399215270e-03    1.0120000000e+05
    3.2497721259e-03    1.0120000000e+05
    3.2599442638e-03    1.0120000000e+05
    3.2698092982e-03    1.0120000000e+05
    3.2796848100e-03    1.0120000000e+05
    3.2898860518e-03    1.0120000000e+05
    3.2997785602e-03    1.0120000000e+05
    3.3096831758e-03    1.0120000000e+05
    3.3199207392e-03    1.0120000000e+05
    3.3298386261e-03    1.0120000000e+05
    3.3397653606e-03    1.0120000000e+05
    3.3497111872e-03    1.0120000000e+05
    3.3599825110e-03    1.0120000000e+05
    3.3699413761e-03    1.0120000000e+05
    3.3799062949e-03    1.0120000000e+05
    3.3898861147e-03    1.0120000000e+05
    3.3998764120e-03    1.0120000000e+05
    3.4098699689e-03    1.0120000000e+05
    3.4198826179e-03    1.0120000000e+05
    3.4298941027e-03    1.0120000000e+05
    3.4399190918e-03    1.0120000000e+05
    3.4499627072e-03    1.0120000000e+05
    3.4596810583e-03    1.0120000000e+05
    3.4697323572e-03    1.0120000000e+05
    3.4797980916e-03    1.0120000000e+05
    3.4898715094e-03    1.0120000000e+05
    3.4999591298e-03    1.0120000000e+05
    3.5097221844e-03    1.0120000000e+05
    3.5198230762e-03    1.0120000000e+05
    3.5299370065e-03    1.0120000000e+05
    3.5397338215e-03    1.0120000000e+05
    3.5498759244e-03    1.0120000000e+05
    3.5596790258e-03    1.0120000000e+05
    3.5698299762e-03    1.0120000000e+05
    3.5799983889e-03    1.0120000000e+05
    3.5898380447e-03    1.0120000000e+05
    3.5996981896e-03    1.0120000000e+05
    3.6098847631e-03    1.0120000000e+05
    3.6197470035e-03    1.0120000000e+05
    3.6299698986e-03    1.0120000000e+05
    3.6398593802e-03    1.0120000000e+05
    3.6497619003e-03    1.0120000000e+05
    3.6599987652e-03    1.0120000000e+05
    3.6699103657e-03    1.0120000000e+05
    3.6798526999e-03    1.0120000000e+05
    3.6897901446e-03    1.0120000000e+05
    3.6997364368e-03    1.0120000000e+05
    3.7096964661e-03    1.0120000000e+05
    3.7199934013e-03    1.0120000000e+05
    3.7299836986e-03    1.0120000000e+05
    3.7399646826e-03    1.0120000000e+05
    3.7499552127e-03    1.0120000000e+05
    3.7599743810e-03    1.0120000000e+05
    3.7699828390e-03    1.0120000000e+05
    3.7796848919e-03    1.0120000000e+05
    3.7897243164e-03    1.0120000000e+05
    3.7997581530e-03    1.0120000000e+05
    3.8098252844e-03    1.0120000000e+05
    3.8198914845e-03    1.0120000000e+05
    3.8299676962e-03    1.0120000000e+05
    3.8397354074e-03    1.0120000000e+05
    3.8498141803e-03    1.0120000000e+05
    3.8599213585e-03    1.0120000000e+05
    3.8697160780e-03    1.0120000000e+05
    3.8798362948e-03    1.0120000000e+05
    3.8899926003e-03    1.0120000000e+05
    3.8997910451e-03    1.0120000000e+05
    3.9099226706e-03    1.0120000000e+05
    3.9197760634e-03    1.0120000000e+05
    3.9299544878e-03    1.0120000000e+05
    3.9398153313e-03    1.0120000000e+05
    3.9496957324e-03    1.0120000000e+05
    3.9598853327e-03    1.0120000000e+05
    3.9697745815e-03    1.0120000000e+05
    3.9796591736e-03    1.0120000000e+05
    3.9898864925e-03    1.0120000000e+05
    3.9998153225e-03    1.0120000000e+05
    4.0097185411e-03    1.0120000000e+05
    4.0199854411e-03    1.0120000000e+05
    4.0299352258e-03    1.0120000000e+05
    4.0398668498e-03    1.0120000000e+05
    4.0498306043e-03    1.0120000000e+05
    4.0598190390e-03    1.0120000000e+05
    4.0698130615e-03    1.0120000000e+05
    4.0798210539e-03    1.0120000000e+05
    4.0898178704e-03    1.0120000000e+05
    4.0998114273e-03    1.0120000000e+05
    4.1098357178e-03    1.0120000000e+05
    4.1198544204e-03    1.0120000000e+05
    4.1298954748e-03    1.0120000000e+05
    4.1399588808e-03    1.0120000000e+05
    4.1496711783e-03    1.0120000000e+05
    4.1597313248e-03    1.0120000000e+05
    4.1697905399e-03    1.0120000000e+05
    4.1798558086e-03    1.0120000000e+05
    4.1899518110e-03    1.0120000000e+05
    4.1997027583e-03    1.0120000000e+05
    4.2098062113e-03    1.0120000000e+05
    4.2199296877e-03    1.0120000000e+05
    4.2297025211e-03    1.0120000000e+05
    4.2398194782e-03    1.0120000000e+05
    4.2499392293e-03    1.0120000000e+05
    4.2597111315e-03    1.0120000000e+05
    4.2698481120e-03    1.0120000000e+05
    4.2799869552e-03    1.0120000000e+05
    4.2897714302e-03    1.0120000000e+05
    4.2999214493e-03    1.0120000000e+05
    4.3097296730e-03    1.0120000000e+05
    4.3198834173e-03    1.0120000000e+05
    4.3296981603e-03    1.0120000000e+05
    4.3398737907e-03    1.0120000000e+05
    4.3497160077e-03    1.0120000000e+05
    4.3599102646e-03    1.0120000000e+05
    4.3697445653e-03    1.0120000000e+05
    4.3799430132e-03    1.0120000000e+05
    4.3898094445e-03    1.0120000000e+05
    4.3996684253e-03    1.0120000000e+05
    4.4098915532e-03    1.0120000000e+05
    4.4197882526e-03    1.0120000000e+05
    4.4296886772e-03    1.0120000000e+05
    4.4399546459e-03    1.0120000000e+05
    4.4498704374e-03    1.0120000000e+05
    4.4597908854e-03    1.0120000000e+05
    4.4697420672e-03    1.0120000000e+05
    4.4797067530e-03    1.0120000000e+05
    4.4896677136e-03    1.0120000000e+05
    4.4999988750e-03    1.0120000000e+05
    4.5099761337e-03    1.0120000000e+05
    4.5199431479e-03    1.0120000000e+05
    4.5299013145e-03    1.0120000000e+05
    4.5398497023e-03    1.0120000000e+05
    4.5497883111e-03    1.0120000000e+05
    4.5598531142e-03    1.0120000000e+05
    4.5698927715e-03    1.0120000000e+05
    4.5798751526e-03    1.0120000000e+05
    4.5897648670e-03    1.0120000000e+05
    4.5999409631e-03    1.0120000000e+05
    4.6099787578e-03    1.0120000000e+05
    4.6198139898e-03    1.0120000000e+05
    4.6298317611e-03    1.0120000000e+05
    4.6395654790e-03    1.0120000000e+05
    4.6499194577e-03    1.0120000000e+05
    4.6599968337e-03    1.0120000000e+05
    4.6697943471e-03    1.0120000000e+05
    4.6797068790e-03    1.0120000000e+05
    4.6896748245e-03    1.0120000000e+05
    4.6997284517e-03    1.0120000000e+05
    4.7098770738e-03    1.0120000000e+05
    4.7196131200e-03    1.0120000000e+05
    4.7299773432e-03    1.0120000000e+05
    4.7398866154e-03    1.0120000000e+05
    4.7498922795e-03    1.0120000000e+05
    4.7594793141e-03    1.0120000000e+05
    4.7696894035e-03    1.0120000000e+05
    4.7799311578e-03    1.0120000000e+05
    4.7897850163e-03    1.0120000000e+05
    4.7996761277e-03    1.0120000000e+05
    4.8096748069e-03    1.0120000000e+05
    4.8196488060e-03    1.0120000000e+05
    4.8296535388e-03    1.0120000000e+05
    4.8397579230e-03    1.0120000000e+05
    4.8498990946e-03    1.0120000000e+05
    4.8595960252e-03    1.0120000000e+05
    4.8698163591e-03    1.0120000000e+05
    4.8799840733e-03    1.0120000000e+05
    4.8895301297e-03    1.0120000000e+05
    4.8998794518e-03    1.0120000000e+05
    4.9097184092e-03    1.0120000000e+05
    4.9197371118e-03    1.0120000000e+05
    4.9299495295e-03    1.0120000000e+05
    4.9398522824e-03    1.0120000000e+05
    4.9497950822e-03    1.0120000000e+05
    4.9599241465e-03    1.0120000000e+05
    4.9697994255e-03    1.0120000000e+05
    4.9798786640e-03    1.0120000000e+05
    4.9899439327e-03    1.0120000000e+05
    4.9999980256e-03    1.0120000000e+05
    5.0098360516e-03    1.0120000000e+05
    5.0199157558e-03    1.0120000000e+05
    5.0298180431e-03    1.0120000000e+05
    5.0397799350e-03    1.0120000000e+05
    5.0497855991e-03    1.0120000000e+05
    5.0599663518e-03    1.0120000000e+05
    5.0697680563e-03    1.0120000000e+05
    5.0799450837e-03    1.0120000000e+05
    5.0898375921e-03    1.0120000000e+05
    5.0999415107e-03    1.0120000000e+05
    5.1099574193e-03    1.0120000000e+05
    5.1198666915e-03    1.0120000000e+05
    5.1297415048e-03    1.0120000000e+05
    5.1397867501e-03    1.0120000000e+05
    5.1499367692e-03    1.0120000000e+05
    5.1599596627e-03    1.0120000000e+05
    5.1698745228e-03    1.0120000000e+05
    5.1798797213e-03    1.0120000000e+05
    5.1899459213e-03    1.0120000000e+05
    5.1998528652e-03    1.0120000000e+05
    5.2098636515e-03    1.0120000000e+05
    5.2199033089e-03    1.0120000000e+05
    5.2297185175e-03    1.0120000000e+05
    5.2399290726e-03    1.0120000000e+05
    5.2498988807e-03    1.0120000000e+05
    5.2598812617e-03    1.0120000000e+05
    5.2699325606e-03    1.0120000000e+05
    5.2797668613e-03    1.0120000000e+05
    5.2899238653e-03    1.0120000000e+05
    5.2998200990e-03    1.0120000000e+05
    5.3097768687e-03    1.0120000000e+05
    5.3197764792e-03    1.0120000000e+05
    5.3297951818e-03    1.0120000000e+05
    5.3398641758e-03    1.0120000000e+05
    5.3499839269e-03    1.0120000000e+05
    5.3598158993e-03    1.0120000000e+05
    5.3699701093e-03    1.0120000000e+05
    5.3798514418e-03    1.0120000000e+05
    5.3897681646e-03    1.0120000000e+05
    5.3997072391e-03    1.0120000000e+05
    5.4099741392e-03    1.0120000000e+05
    5.4199476726e-03    1.0120000000e+05
    5.4299375042e-03    1.0120000000e+05
    5.4399492219e-03    1.0120000000e+05
    5.4499818943e-03    1.0120000000e+05
    5.4597142152e-03    1.0120000000e+05
    5.4697692394e-03    1.0120000000e+05
    5.4798354395e-03    1.0120000000e+05
    5.4899132811e-03    1.0120000000e+05
    5.4999971762e-03    1.0120000000e+05
    5.5097667500e-03    1.0120000000e+05
    5.5198585615e-03    1.0120000000e+05
    5.5299587548e-03    1.0120000000e+05
    5.5397506803e-03    1.0120000000e+05
    5.5498639122e-03    1.0120000000e+05
    5.5599785410e-03    1.0120000000e+05
    5.5697779171e-03    1.0120000000e+05
    5.5798944086e-03    1.0120000000e+05
    5.5896956474e-03    1.0120000000e+05
    5.5998153985e-03    1.0120000000e+05
    5.6099374779e-03    1.0120000000e+05
    5.6197443046e-03    1.0120000000e+05
    5.6298691779e-03    1.0120000000e+05
    5.6399954483e-03    1.0120000000e+05
    5.6498060003e-03    1.0120000000e+05
    5.6599350646e-03    1.0120000000e+05
    5.6697479449e-03    1.0120000000e+05
    5.6798784062e-03    1.0120000000e+05
    5.6896931492e-03    1.0120000000e+05
    5.6998273358e-03    1.0120000000e+05
    5.7099680416e-03    1.0120000000e+05
    5.7198004797e-03    1.0120000000e+05
    5.7299607433e-03    1.0120000000e+05
    5.7398048230e-03    1.0120000000e+05
    5.7499646209e-03    1.0120000000e+05
    5.7598063722e-03    1.0120000000e+05
    5.7699647732e-03    1.0120000000e+05
    5.7798055932e-03    1.0120000000e+05
    5.7899686508e-03    1.0120000000e+05
    5.7998178527e-03    1.0120000000e+05
    5.8099851012e-03    1.0120000000e+05
    5.8198343031e-03    1.0120000000e+05
    5.8296839707e-03    1.0120000000e+05
    5.8398516849e-03    1.0120000000e+05
    5.8497013524e-03    1.0120000000e+05
    5.8598699979e-03    1.0120000000e+05
    5.8697219938e-03    1.0120000000e+05
    5.8798920363e-03    1.0120000000e+05
    5.8897440322e-03    1.0120000000e+05
    5.8999145404e-03    1.0120000000e+05
    5.9097679332e-03    1.0120000000e+05
    5.9199403040e-03    1.0120000000e+05
    5.9297950938e-03    1.0120000000e+05
    5.9399679303e-03    1.0120000000e+05
    5.9498236515e-03    1.0120000000e+05
    5.9599974193e-03    1.0120000000e+05
    5.9698545374e-03    1.0120000000e+05
    5.9797125868e-03    1.0120000000e+05
    5.9898886830e-03    1.0120000000e+05
    5.9997471981e-03    1.0120000000e+05
    6.0099246912e-03    1.0120000000e+05
    6.0197850689e-03    1.0120000000e+05
    6.0299644247e-03    1.0120000000e+05
    6.0398266651e-03    1.0120000000e+05
    6.0496893711e-03    1.0120000000e+05
    6.0598710552e-03    1.0120000000e+05
    6.0697351582e-03    1.0120000000e+05
    6.0799182393e-03    1.0120000000e+05
    6.0897837393e-03    1.0120000000e+05
    6.0999691486e-03    1.0120000000e+05
    6.1098365113e-03    1.0120000000e+05
    6.1197052710e-03    1.0120000000e+05
    6.1298934743e-03    1.0120000000e+05
    6.1397636309e-03    1.0120000000e+05
    6.1499522999e-03    1.0120000000e+05
    6.1598238535e-03    1.0120000000e+05
    6.1696972698e-03    1.0120000000e+05
    6.1798901297e-03    1.0120000000e+05
    6.1897644773e-03    1.0120000000e+05
    6.1999578029e-03    1.0120000000e+05
    6.2098340131e-03    1.0120000000e+05
    6.2197106890e-03    1.0120000000e+05
    6.2299072742e-03    1.0120000000e+05
    6.2397858128e-03    1.0120000000e+05
    6.2499833293e-03    1.0120000000e+05
    6.2598632649e-03    1.0120000000e+05
    6.2697450630e-03    1.0120000000e+05
    6.2799463049e-03    1.0120000000e+05
    6.2898290344e-03    1.0120000000e+05
    6.2997122295e-03    1.0120000000e+05
    6.3099148683e-03    1.0120000000e+05
    6.3198003918e-03    1.0120000000e+05
    6.3296868466e-03    1.0120000000e+05
    6.3398932107e-03    1.0120000000e+05
    6.3497801311e-03    1.0120000000e+05
    6.3599869609e-03    1.0120000000e+05
    6.3698762096e-03    1.0120000000e+05
    6.3797668554e-03    1.0120000000e+05
    6.3899769448e-03    1.0120000000e+05
    6.3998685218e-03    1.0120000000e+05
    6.4097600989e-03    1.0120000000e+05
    6.4199720509e-03    1.0120000000e+05
    6.4298664220e-03    1.0120000000e+05
    6.4397612587e-03    1.0120000000e+05
    6.4499760047e-03    1.0120000000e+05
    6.4598717727e-03    1.0120000000e+05
    6.4697680064e-03    1.0120000000e+05
    6.4799850807e-03    1.0120000000e+05
    6.4898836426e-03    1.0120000000e+05
    6.4997826703e-03    1.0120000000e+05
    6.5096821636e-03    1.0120000000e+05
    6.5199015662e-03    1.0120000000e+05
    6.5298024565e-03    1.0120000000e+05
    6.5397042781e-03    1.0120000000e+05
    6.5499264747e-03    1.0120000000e+05
    6.5598292276e-03    1.0120000000e+05
    6.5697324462e-03    1.0120000000e+05
    6.5799560398e-03    1.0120000000e+05
    6.5898606554e-03    1.0120000000e+05
    6.5997662023e-03    1.0120000000e+05
    6.6099911928e-03    1.0120000000e+05
    6.6198976710e-03    1.0120000000e+05
    6.6298050806e-03    1.0120000000e+05
    6.6397124901e-03    1.0120000000e+05
    6.6499398090e-03    1.0120000000e+05
    6.6598486155e-03    1.0120000000e+05
    6.6697569564e-03    1.0120000000e+05
    6.6799861379e-03    1.0120000000e+05
    6.6898958758e-03    1.0120000000e+05
    6.6998065449e-03    1.0120000000e+05
    6.7097167484e-03    1.0120000000e+05
    6.7199473269e-03    1.0120000000e+05
    6.7298584618e-03    1.0120000000e+05
    6.7397700623e-03    1.0120000000e+05
    6.7496816628e-03    1.0120000000e+05
    6.7599136382e-03    1.0120000000e+05
    6.7698257044e-03    1.0120000000e+05
    6.7797382362e-03    1.0120000000e+05
    6.7899706773e-03    1.0120000000e+05
    6.7998836748e-03    1.0120000000e+05
    6.8097966723e-03    1.0120000000e+05
    6.8197101355e-03    1.0120000000e+05
    6.8299430422e-03    1.0120000000e+05
    6.8398565054e-03    1.0120000000e+05
    6.8497699685e-03    1.0120000000e+05
    6.8596834317e-03    1.0120000000e+05
    6.8699168041e-03    1.0120000000e+05
    6.8798298016e-03    1.0120000000e+05
    6.8897432648e-03    1.0120000000e+05
    6.8999766372e-03    1.0120000000e+05
    6.9098901004e-03    1.0120000000e+05
    6.9198030978e-03    1.0120000000e+05
    6.9297165610e-03    1.0120000000e+05
    6.9399494678e-03    1.0120000000e+05
    6.9498629309e-03    1.0120000000e+05
    6.9597759284e-03    1.0120000000e+05
    6.9696889259e-03    1.0120000000e+05
    6.9799218327e-03    1.0120000000e+05
    6.9898348302e-03    1.0120000000e+05
    6.9997478276e-03    1.0120000000e+05
    7.0099802688e-03    1.0120000000e+05
    7.0198928006e-03    1.0120000000e+05
    7.0298057981e-03    1.0120000000e+05
    7.0397183299e-03    1.0120000000e+05
    7.0499503054e-03    1.0120000000e+05
    7.0598628372e-03    1.0120000000e+05
    7.0697749034e-03    1.0120000000e+05
    7.0796874352e-03    1.0120000000e+05
    7.0899189450e-03    1.0120000000e+05
    7.0998310111e-03    1.0120000000e+05
    7.1097430773e-03    1.0120000000e+05
    7.1199745871e-03    1.0120000000e+05
    7.1298861876e-03    1.0120000000e+05
    7.1397977881e-03    1.0120000000e+05
    7.1497089230e-03    1.0120000000e+05
    7.1599399671e-03    1.0120000000e+05
    7.1698511019e-03    1.0120000000e+05
    7.1797622368e-03    1.0120000000e+05
    7.1899928153e-03    1.0120000000e+05
    7.1999034844e-03    1.0120000000e+05
    7.2098141536e-03    1.0120000000e+05
    7.2197252885e-03    1.0120000000e+05
    7.2299558669e-03    1.0120000000e+05
    7.2398670018e-03    1.0120000000e+05
    7.2497776709e-03    1.0120000000e+05
    7.2596897371e-03    1.0120000000e+05
    7.2699217126e-03    1.0120000000e+05
    7.2798356414e-03    1.0120000000e+05
    7.2897486389e-03    1.0120000000e+05
    7.2999824770e-03    1.0120000000e+05
    7.3098996654e-03    1.0120000000e+05
    7.3198205791e-03    1.0120000000e+05
    7.3297433555e-03    1.0120000000e+05
    7.3399855755e-03    1.0120000000e+05
    7.3499064893e-03    1.0120000000e+05
    7.3598339222e-03    1.0120000000e+05
    7.3697697371e-03    1.0120000000e+05
    7.3797102086e-03    1.0120000000e+05
    7.3899705894e-03    1.0120000000e+05
    7.3999091983e-03    1.0120000000e+05
    7.4098510668e-03    1.0120000000e+05
    7.4198041111e-03    1.0120000000e+05
    7.4297641404e-03    1.0120000000e+05
    7.4397269636e-03    1.0120000000e+05
    7.4496907182e-03    1.0120000000e+05
    7.4599790387e-03    1.0120000000e+05
    7.4699535035e-03    1.0120000000e+05
    7.4799340218e-03    1.0120000000e+05
    7.4899210595e-03    1.0120000000e+05
    7.4999127537e-03    1.0120000000e+05
    7.5099114329e-03    1.0120000000e+05
    7.5199152343e-03    1.0120000000e+05
    7.5299227610e-03    1.0120000000e+05
    7.5399363413e-03    1.0120000000e+05
    7.5499545783e-03    1.0120000000e+05
    7.5599839911e-03    1.0120000000e+05
    7.5697004795e-03    1.0120000000e+05
    7.5797424652e-03    1.0120000000e+05
    7.5897858478e-03    1.0120000000e+05
    7.5998315588e-03    1.0120000000e+05
    7.6098851860e-03    1.0120000000e+05
    7.6199509203e-03    1.0120000000e+05
    7.6297000051e-03    1.0120000000e+05
    7.6397797093e-03    1.0120000000e+05
    7.6498580165e-03    1.0120000000e+05
    7.6599381864e-03    1.0120000000e+05
    7.6697049662e-03    1.0120000000e+05
    7.6798070222e-03    1.0120000000e+05
    7.6899193227e-03    1.0120000000e+05
    7.6997098513e-03    1.0120000000e+05
    7.7098268084e-03    1.0120000000e+05
    7.7199465595e-03    1.0120000000e+05
    7.7297436073e-03    1.0120000000e+05
    7.7398819849e-03    1.0120000000e+05
    7.7497023158e-03    1.0120000000e+05
    7.7598597854e-03    1.0120000000e+05
    7.7696922235e-03    1.0120000000e+05
    7.7798515558e-03    1.0120000000e+05
    7.7896872535e-03    1.0120000000e+05
    7.7998549677e-03    1.0120000000e+05
    7.8097074293e-03    1.0120000000e+05
    7.8198965639e-03    1.0120000000e+05
    7.8297611326e-03    1.0120000000e+05
    7.8399535269e-03    1.0120000000e+05
    7.8498171642e-03    1.0120000000e+05
    7.8596891835e-03    1.0120000000e+05
    7.8698974103e-03    1.0120000000e+05
    7.8797917813e-03    1.0120000000e+05
    7.8896936029e-03    1.0120000000e+05
    7.8999223188e-03    1.0120000000e+05
    7.9098232090e-03    1.0120000000e+05
    7.9197250307e-03    1.0120000000e+05
    7.9299677163e-03    1.0120000000e+05
    7.9398863018e-03    1.0120000000e+05
    7.9498160630e-03    1.0120000000e+05
    7.9597458243e-03    1.0120000000e+05
    7.9696718603e-03    1.0120000000e+05
    7.9799341038e-03    1.0120000000e+05
    7.9898703843e-03    1.0120000000e+05
    7.9998178408e-03    1.0120000000e+05
    8.0097727478e-03    1.0120000000e+05
    8.0197351053e-03    1.0120000000e+05
    8.0296937376e-03    1.0120000000e+05
    8.0399801955e-03    1.0120000000e+05
    8.0499462783e-03    1.0120000000e+05
    8.0599198118e-03    1.0120000000e+05
    8.0699035898e-03    1.0120000000e+05
    8.0798910931e-03    1.0120000000e+05
    8.0898804590e-03    1.0120000000e+05
    8.0998679623e-03    1.0120000000e+05
    8.1098545343e-03    1.0120000000e+05
    8.1198476255e-03    1.0120000000e+05
    8.1298490986e-03    1.0120000000e+05
    8.1398561597e-03    1.0120000000e+05
    8.1498650834e-03    1.0120000000e+05
    8.1598702818e-03    1.0120000000e+05
    8.1698670983e-03    1.0120000000e+05
    8.1798555329e-03    1.0120000000e+05
    8.1898365170e-03    1.0120000000e+05
    8.1998063251e-03    1.0120000000e+05
    8.2097668201e-03    1.0120000000e+05
    8.2197180018e-03    1.0120000000e+05
    8.2299914211e-03    1.0120000000e+05
    8.2399267703e-03    1.0120000000e+05
    8.2498556003e-03    1.0120000000e+05
    8.2597769797e-03    1.0120000000e+05
    8.2696937025e-03    1.0120000000e+05
    8.2799531519e-03    1.0120000000e+05
    8.2896780223e-03    1.0120000000e+05
    8.2998229191e-03    1.0120000000e+05
    8.3098225296e-03    1.0120000000e+05
    8.3197392523e-03    1.0120000000e+05
    8.3299400285e-03    1.0120000000e+05
    8.3397906274e-03    1.0120000000e+05
    8.3496551961e-03    1.0120000000e+05
    8.3598848432e-03    1.0120000000e+05
    8.3697699010e-03    1.0120000000e+05
    8.3796614781e-03    1.0120000000e+05
    8.3899144083e-03    1.0120000000e+05
    8.3998208866e-03    1.0120000000e+05
    8.4097329527e-03    1.0120000000e+05
    8.4196506068e-03    1.0120000000e+05
    8.4299268201e-03    1.0120000000e+05
    8.4398519248e-03    1.0120000000e+05
    8.4497807547e-03    1.0120000000e+05
    8.4597123787e-03    1.0120000000e+05
    8.4696458653e-03    1.0120000000e+05
    8.4799360484e-03    1.0120000000e+05
    8.4898732603e-03    1.0120000000e+05
    8.4998114035e-03    1.0120000000e+05
    8.5097495466e-03    1.0120000000e+05
    8.5196886212e-03    1.0120000000e+05
    8.5299825296e-03    1.0120000000e+05
    8.5399216041e-03    1.0120000000e+05
    8.5498606786e-03    1.0120000000e+05
    8.5597988218e-03    1.0120000000e+05
    8.5697378963e-03    1.0120000000e+05
    8.5796760395e-03    1.0120000000e+05
    8.5899690166e-03    1.0120000000e+05
    8.5999062285e-03    1.0120000000e+05
    8.6098443717e-03    1.0120000000e+05
    8.6197815835e-03    1.0120000000e+05
    8.6297178641e-03    1.0120000000e+05
    8.6396550760e-03    1.0120000000e+05
    8.6499461904e-03    1.0120000000e+05
    8.6598815396e-03    1.0120000000e+05
    8.6698178202e-03    1.0120000000e+05
    8.6797531694e-03    1.0120000000e+05
    8.6896875873e-03    1.0120000000e+05
    8.6999777704e-03    1.0120000000e+05
    8.7099112570e-03    1.0120000000e+05
    8.7198456749e-03    1.0120000000e+05
    8.7297791615e-03    1.0120000000e+05
    8.7397126481e-03    1.0120000000e+05
    8.7496461347e-03    1.0120000000e+05
    8.7599344552e-03    1.0120000000e+05
    8.7698670104e-03    1.0120000000e+05
    8.7797995657e-03    1.0120000000e+05
    8.7897311896e-03    1.0120000000e+05
    8.7996637449e-03    1.0120000000e+05
    8.8099502027e-03    1.0120000000e+05
    8.8198818266e-03    1.0120000000e+05
    8.8298134506e-03    1.0120000000e+05
    8.8397441432e-03    1.0120000000e+05
    8.8496757671e-03    1.0120000000e+05
    8.8599612936e-03    1.0120000000e+05
    8.8698929176e-03    1.0120000000e+05
    8.8798236102e-03    1.0120000000e+05
    8.8897552341e-03    1.0120000000e+05
    8.8996859267e-03    1.0120000000e+05
    8.9099714532e-03    1.0120000000e+05
    8.9199021459e-03    1.0120000000e+05
    8.9298328385e-03    1.0120000000e+05
    8.9397635311e-03    1.0120000000e+05
    8.9496960863e-03    1.0120000000e+05
    8.9599853382e-03    1.0120000000e+05
    8.9699216187e-03    1.0120000000e+05
    8.9798597619e-03    1.0120000000e+05
    8.9897988364e-03    1.0120000000e+05
    8.9997379109e-03    1.0120000000e+05
    9.0096769854e-03    1.0120000000e+05
    9.0199708939e-03    1.0120000000e+05
    9.0299108997e-03    1.0120000000e+05
    9.0398518369e-03    1.0120000000e+05
    9.0497927740e-03    1.0120000000e+05
    9.0597355738e-03    1.0120000000e+05
    9.0696783736e-03    1.0120000000e+05
    9.0799778700e-03    1.0120000000e+05
    9.0899216011e-03    1.0120000000e+05
    9.0998671949e-03    1.0120000000e+05
    9.1098127887e-03    1.0120000000e+05
    9.1197593138e-03    1.0120000000e+05
    9.1297067702e-03    1.0120000000e+05
    9.1396542266e-03    1.0120000000e+05
    9.1499583796e-03    1.0120000000e+05
    9.1599067673e-03    1.0120000000e+05
    9.1698570177e-03    1.0120000000e+05
    9.1798063368e-03    1.0120000000e+05
    9.1897565871e-03    1.0120000000e+05
    9.1997077689e-03    1.0120000000e+05
    9.2096589506e-03    1.0120000000e+05
    9.2199658975e-03    1.0120000000e+05
    9.2299170792e-03    1.0120000000e+05
    9.2398701236e-03    1.0120000000e+05
    9.2498222366e-03    1.0120000000e+05
    9.2597752810e-03    1.0120000000e+05
    9.2697292566e-03    1.0120000000e+05
    9.2796823010e-03    1.0120000000e+05
    9.2899920419e-03    1.0120000000e+05
    9.2999469489e-03    1.0120000000e+05
    9.3099009246e-03    1.0120000000e+05
    9.3198567629e-03    1.0120000000e+05
    9.3298116699e-03    1.0120000000e+05
    9.3397675082e-03    1.0120000000e+05
    9.3497242779e-03    1.0120000000e+05
    9.3596810475e-03    1.0120000000e+05
    9.3699935824e-03    1.0120000000e+05
    9.3799503520e-03    1.0120000000e+05
    9.3899089843e-03    1.0120000000e+05
    9.3998666853e-03    1.0120000000e+05
    9.4098253176e-03    1.0120000000e+05
    9.4197848812e-03    1.0120000000e+05
    9.4297444448e-03    1.0120000000e+05
    9.4397040084e-03    1.0120000000e+05
    9.4496645033e-03    1.0120000000e+05
    9.4599816948e-03    1.0120000000e+05
    9.4699431211e-03    1.0120000000e+05
    9.4799045473e-03    1.0120000000e+05
    9.4898669049e-03    1.0120000000e+05
    9.4998301938e-03    1.0120000000e+05
    9.5097934827e-03    1.0120000000e+05
    9.5197577029e-03    1.0120000000e+05
    9.5297219232e-03    1.0120000000e+05
    9.5396870747e-03    1.0120000000e+05
    9.5496522263e-03    1.0120000000e+05
    9.5599740744e-03    1.0120000000e+05
    9.5699410886e-03    1.0120000000e+05
    9.5799081028e-03    1.0120000000e+05
    9.5898760483e-03    1.0120000000e+05
    9.5998449251e-03    1.0120000000e+05
    9.6098138019e-03    1.0120000000e+05
    9.6197836101e-03    1.0120000000e+05
    9.6297534183e-03    1.0120000000e+05
    9.6397241578e-03    1.0120000000e+05
    9.6496958286e-03    1.0120000000e+05
    9.6596674994e-03    1.0120000000e+05
    9.6699958667e-03    1.0120000000e+05
    9.6799694002e-03    1.0120000000e+05
    9.6899429336e-03    1.0120000000e+05
    9.6999173984e-03    1.0120000000e+05
    9.7098927945e-03    1.0120000000e+05
    9.7198681906e-03    1.0120000000e+05
    9.7298445180e-03    1.0120000000e+05
    9.7398217767e-03    1.0120000000e+05
    9.7497999668e-03    1.0120000000e+05
    9.7597781569e-03    1.0120000000e+05
    9.7697572783e-03    1.0120000000e+05
    9.7797363997e-03    1.0120000000e+05
    9.7897164524e-03    1.0120000000e+05
    9.7996974364e-03    1.0120000000e+05
    9.8096784204e-03    1.0120000000e+05
    9.8196612671e-03    1.0120000000e+05
    9.8296441138e-03    1.0120000000e+05
    9.8399836570e-03    1.0120000000e+05
    9.8499683663e-03    1.0120000000e+05
    9.8599530756e-03    1.0120000000e+05
    9.8699377850e-03    1.0120000000e+05
    9.8799243569e-03    1.0120000000e+05
    9.8899109289e-03    1.0120000000e+05
    9.8998984322e-03    1.0120000000e+05
    9.9098859355e-03    1.0120000000e+05
    9.9198743701e-03    1.0120000000e+05
    9.9298637360e-03    1.0120000000e+05
    9.9398540333e-03    1.0120000000e+05
    9.9498443305e-03    1.0120000000e+05
    9.9598355591e-03    1.0120000000e+05
    9.9698267877e-03    1.0120000000e+05
    9.9798189476e-03    1.0120000000e+05
    9.9898120388e-03    1.0120000000e+05
    9.9998060614e-03    1.0120000000e+05
    1.0009800084e-02    1.0120000000e+05
    1.0019794106e-02    1.0120000000e+05
    1.0029789992e-02    1.0120000000e+05
    1.0039785877e-02    1.0120000000e+05
    1.0049781762e-02    1.0120000000e+05
    1.0059778579e-02    1.0120000000e+05
    1.0069776326e-02    1.0120000000e+05
    1.0079775006e-02    1.0120000000e+05
    1.0089772753e-02    1.0120000000e+05
    1.0099772364e-02    1.0120000000e+05
    1.0109771974e-02    1.0120000000e+05
    1.0119772516e-02    1.0120000000e+05
    1.0129773058e-02    1.0120000000e+05
    1.0139773600e-02    1.0120000000e+05
    1.0149776004e-02    1.0120000000e+05
    1.0159777477e-02    1.0120000000e+05
    1.0169779882e-02    1.0120000000e+05
    1.0179783218e-02    1.0120000000e+05
    1.0189786553e-02    1.0120000000e+05
    1.0199790820e-02    1.0120000000e+05
    1.0209795088e-02    1.0120000000e+05
    1.0219800286e-02    1.0120000000e+05
    1.0229805484e-02    1.0120000000e+05
    1.0239810683e-02    1.0120000000e+05
    1.0249816813e-02    1.0120000000e+05
    1.0259822942e-02    1.0120000000e+05
    1.0269830003e-02    1.0120000000e+05
    1.0279837064e-02    1.0120000000e+05
    1.0289844126e-02    1.0120000000e+05
    1.0299852118e-02    1.0120000000e+05
    1.0309860110e-02    1.0120000000e+05
    1.0319868103e-02    1.0120000000e+05
    1.0329877026e-02    1.0120000000e+05
    1.0339885950e-02    1.0120000000e+05
    1.0349894874e-02    1.0120000000e+05
    1.0359904729e-02    1.0120000000e+05
    1.0369914584e-02    1.0120000000e+05
    1.0379924439e-02    1.0120000000e+05
    1.0389934294e-02    1.0120000000e+05
    1.0399945080e-02    1.0120000000e+05
    1.0409955867e-02    1.0120000000e+05
    1.0419966653e-02    1.0120000000e+05
    1.0429978371e-02    1.0120000000e+05
    1.0439989157e-02    1.0120000000e+05
    1.0449643247e-02    1.0120000000e+05
    1.0459654965e-02    1.0120000000e+05
    1.0469666682e-02    1.0120000000e+05
    1.0479678400e-02    1.0120000000e+05
    1.0489691049e-02    1.0120000000e+05
    1.0499702767e-02    1.0120000000e+05
    1.0509715416e-02    1.0120000000e+05
    1.0519727133e-02    1.0120000000e+05
    1.0529739782e-02    1.0120000000e+05
    1.0539752431e-02    1.0120000000e+05
    1.0549765080e-02    1.0120000000e+05
    1.0559777729e-02    1.0120000000e+05
    1.0569790378e-02    1.0120000000e+05
    1.0579803027e-02    1.0120000000e+05
    1.0589816608e-02    1.0120000000e+05
    1.0599829257e-02    1.0120000000e+05
    1.0609841906e-02    1.0120000000e+05
    1.0619854555e-02    1.0120000000e+05
    1.0629867204e-02    1.0120000000e+05
    1.0639879853e-02    1.0120000000e+05
    1.0649892502e-02    1.0120000000e+05
    1.0659905151e-02    1.0120000000e+05
    1.0669917800e-02    1.0120000000e+05
    1.0679930449e-02    1.0120000000e+05
    1.0689943098e-02    1.0120000000e+05
    1.0699956678e-02    1.0120000000e+05
    1.0709969327e-02    1.0120000000e+05
    1.0719981976e-02    1.0120000000e+05
    1.0729993694e-02    1.0120000000e+05
    1.0739648715e-02    1.0120000000e+05
    1.0749661364e-02    1.0120000000e+05
    1.0759674013e-02    1.0120000000e+05
    1.0769686662e-02    1.0120000000e+05
    1.0779699311e-02    1.0120000000e+05
    1.0789711028e-02    1.0120000000e+05
    1.0799723677e-02    1.0120000000e+05
    1.0809736326e-02    1.0120000000e+05
    1.0819748044e-02    1.0120000000e+05
    1.0829760693e-02    1.0120000000e+05
    1.0839772411e-02    1.0120000000e+05
    1.0849785060e-02    1.0120000000e+05
    1.0859796777e-02    1.0120000000e+05
    1.0869808495e-02    1.0120000000e+05
    1.0879820213e-02    1.0120000000e+05
    1.0889831930e-02    1.0120000000e+05
    1.0899843648e-02    1.0120000000e+05
    1.0909855366e-02    1.0120000000e+05
    1.0919867083e-02    1.0120000000e+05
    1.0929877870e-02    1.0120000000e+05
    1.0939889587e-02    1.0120000000e+05
    1.0949900374e-02    1.0120000000e+05
    1.0959911160e-02    1.0120000000e+05
    1.0969921947e-02    1.0120000000e+05
    1.0979933664e-02    1.0120000000e+05
    1.0989943519e-02    1.0120000000e+05
    1.0999954306e-02    1.0120000000e+05
    1.1009965092e-02    1.0120000000e+05
    1.1019975878e-02    1.0120000000e+05
    1.1029985733e-02    1.0120000000e+05
    1.1039995588e-02    1.0120000000e+05
    1.1049648747e-02    1.0120000000e+05
    1.1059658602e-02    1.0120000000e+05
    1.1069668457e-02    1.0120000000e+05
    1.1079678312e-02    1.0120000000e+05
    1.1089687236e-02    1.0120000000e+05
    1.1099697091e-02    1.0120000000e+05
    1.1109706946e-02    1.0120000000e+05
    1.1119715869e-02    1.0120000000e+05
    1.1129724793e-02    1.0120000000e+05
    1.1139733717e-02    1.0120000000e+05
    1.1149742641e-02    1.0120000000e+05
    1.1159751564e-02    1.0120000000e+05
    1.1169760488e-02    1.0120000000e+05
    1.1179768480e-02    1.0120000000e+05
    1.1189777404e-02    1.0120000000e+05
    1.1199785396e-02    1.0120000000e+05
    1.1209794320e-02    1.0120000000e+05
    1.1219802313e-02    1.0120000000e+05
    1.1229810305e-02    1.0120000000e+05
    1.1239818297e-02    1.0120000000e+05
    1.1249826290e-02    1.0120000000e+05
    1.1259834282e-02    1.0120000000e+05
    1.1269841343e-02    1.0120000000e+05
    1.1279849336e-02    1.0120000000e+05
    1.1289856397e-02    1.0120000000e+05
    1.1299864389e-02    1.0120000000e+05
    1.1309871450e-02    1.0120000000e+05
    1.1319878511e-02    1.0120000000e+05
    1.1329886504e-02    1.0120000000e+05
    1.1339893565e-02    1.0120000000e+05
    1.1349901557e-02    1.0120000000e+05
    1.1359908618e-02    1.0120000000e+05
    1.1369916610e-02    1.0120000000e+05
    1.1379924603e-02    1.0120000000e+05
    1.1389933527e-02    1.0120000000e+05
    1.1399941519e-02    1.0120000000e+05
    1.1409950443e-02    1.0120000000e+05
    1.1419960298e-02    1.0120000000e+05
    1.1429969221e-02    1.0120000000e+05
    1.1439979076e-02    1.0120000000e+05
    1.1449988000e-02    1.0120000000e+05
    1.1459995992e-02    1.0120000000e+05
    1.1469646357e-02    1.0120000000e+05
    1.1479653418e-02    1.0120000000e+05
    1.1489657685e-02    1.0120000000e+05
    1.1499658227e-02    1.0120000000e+05
    1.1509654112e-02    1.0120000000e+05
    1.1519998312e-02    1.0120000000e+05
    1.1529979296e-02    1.0120000000e+05
    1.1539955623e-02    1.0120000000e+05
    1.1549929157e-02    1.0120000000e+05
    1.1559891514e-02    1.0120000000e+05
    1.1569893919e-02    1.0120000000e+05
    1.1579698883e-02    1.0120000000e+05
    1.1589870788e-02    1.0120000000e+05
    1.1599673890e-02    1.0120000000e+05
    1.1609863490e-02    1.0120000000e+05
    1.1619691737e-02    1.0120000000e+05
    1.1629889719e-02    1.0120000000e+05
    1.1639727280e-02    1.0120000000e+05
    1.1649933644e-02    1.0120000000e+05
    1.1659779586e-02    1.0120000000e+05
    1.1669993401e-02    1.0120000000e+05
    1.1679844931e-02    1.0120000000e+05
    1.1689699255e-02    1.0120000000e+05
    1.1699921452e-02    1.0120000000e+05
    1.1709780432e-02    1.0120000000e+05
    1.1719642207e-02    1.0120000000e+05
    1.1729869992e-02    1.0120000000e+05
    1.1739734560e-02    1.0120000000e+05
    1.1749966070e-02    1.0120000000e+05
    1.1759834364e-02    1.0120000000e+05
    1.1769702658e-02    1.0120000000e+05
    1.1779937893e-02    1.0120000000e+05
    1.1789808981e-02    1.0120000000e+05
    1.1799680069e-02    1.0120000000e+05
    1.1809918098e-02    1.0120000000e+05
    1.1819791049e-02    1.0120000000e+05
    1.1829664931e-02    1.0120000000e+05
    1.1839904822e-02    1.0120000000e+05
    1.1849778704e-02    1.0120000000e+05
    1.1859653518e-02    1.0120000000e+05
    1.1869894341e-02    1.0120000000e+05
    1.1879769154e-02    1.0120000000e+05
    1.1889643967e-02    1.0120000000e+05
    1.1899884790e-02    1.0120000000e+05
    1.1909759603e-02    1.0120000000e+05
    1.1919634417e-02    1.0120000000e+05
    1.1929875240e-02    1.0120000000e+05
    1.1939750053e-02    1.0120000000e+05
    1.1949990876e-02    1.0120000000e+05
    1.1959865689e-02    1.0120000000e+05
    1.1969739571e-02    1.0120000000e+05
    1.1979980394e-02    1.0120000000e+05
    1.1989854276e-02    1.0120000000e+05
    1.1999729089e-02    1.0120000000e+05
    1.2009968981e-02    1.0120000000e+05
    1.2019843794e-02    1.0120000000e+05
    1.2029717676e-02    1.0120000000e+05
    1.2039957568e-02    1.0120000000e+05
    1.2049831450e-02    1.0120000000e+05
    1.2059705332e-02    1.0120000000e+05
    1.2069945224e-02    1.0120000000e+05
    1.2079819106e-02    1.0120000000e+05
    1.2089692988e-02    1.0120000000e+05
    1.2099931948e-02    1.0120000000e+05
    1.2109805830e-02    1.0120000000e+05
    1.2119678780e-02    1.0120000000e+05
    1.2129918672e-02    1.0120000000e+05
    1.2139791623e-02    1.0120000000e+05
    1.2149665505e-02    1.0120000000e+05
    1.2159904465e-02    1.0120000000e+05
    1.2169777416e-02    1.0120000000e+05
    1.2179651298e-02    1.0120000000e+05
    1.2189890258e-02    1.0120000000e+05
    1.2199763209e-02    1.0120000000e+05
    1.2209637091e-02    1.0120000000e+05
    1.2219876051e-02    1.0120000000e+05
    1.2229749002e-02    1.0120000000e+05
    1.2239987962e-02    1.0120000000e+05
    1.2249861844e-02    1.0120000000e+05
    1.2259735726e-02    1.0120000000e+05
    1.2269974686e-02    1.0120000000e+05
    1.2279848568e-02    1.0120000000e+05
    1.2289722450e-02    1.0120000000e+05
    1.2299961410e-02    1.0120000000e+05
    1.2309835292e-02    1.0120000000e+05
    1.2319710106e-02    1.0120000000e+05
    1.2329949997e-02    1.0120000000e+05
    1.2339824811e-02    1.0120000000e+05
    1.2349698693e-02    1.0120000000e+05
    1.2359939516e-02    1.0120000000e+05
    1.2369814329e-02    1.0120000000e+05
    1.2379689142e-02    1.0120000000e+05
    1.2389930896e-02    1.0120000000e+05
    1.2399805710e-02    1.0120000000e+05
    1.2409681454e-02    1.0120000000e+05
    1.2419922277e-02    1.0120000000e+05
    1.2429798022e-02    1.0120000000e+05
    1.2439673766e-02    1.0120000000e+05
    1.2449915521e-02    1.0120000000e+05
    1.2459791265e-02    1.0120000000e+05
    1.2469667010e-02    1.0120000000e+05
    1.2479908764e-02    1.0120000000e+05
    1.2489785440e-02    1.0120000000e+05
    1.2499661185e-02    1.0120000000e+05
    1.2509903871e-02    1.0120000000e+05
    1.2519779615e-02    1.0120000000e+05
    1.2529656291e-02    1.0120000000e+05
    1.2539898045e-02    1.0120000000e+05
    1.2549774721e-02    1.0120000000e+05
    1.2559651397e-02    1.0120000000e+05
    1.2569893152e-02    1.0120000000e+05
    1.2579769827e-02    1.0120000000e+05
    1.2589646503e-02    1.0120000000e+05
    1.2599889189e-02    1.0120000000e+05
    1.2609765865e-02    1.0120000000e+05
    1.2619642541e-02    1.0120000000e+05
    1.2629885226e-02    1.0120000000e+05
    1.2639761902e-02    1.0120000000e+05
    1.2649638578e-02    1.0120000000e+05
    1.2659881264e-02    1.0120000000e+05
    1.2669758871e-02    1.0120000000e+05
    1.2679635547e-02    1.0120000000e+05
    1.2689878233e-02    1.0120000000e+05
    1.2699755840e-02    1.0120000000e+05
    1.2709998526e-02    1.0120000000e+05
    1.2719876133e-02    1.0120000000e+05
    1.2729753740e-02    1.0120000000e+05
    1.2739996426e-02    1.0120000000e+05
    1.2749874033e-02    1.0120000000e+05
    1.2759751640e-02    1.0120000000e+05
    1.2769995257e-02    1.0120000000e+05
    1.2779872864e-02    1.0120000000e+05
    1.2789750472e-02    1.0120000000e+05
    1.2799995020e-02    1.0120000000e+05
    1.2809872627e-02    1.0120000000e+05
    1.2819751166e-02    1.0120000000e+05
    1.2829994783e-02    1.0120000000e+05
    1.2839873321e-02    1.0120000000e+05
    1.2849751860e-02    1.0120000000e+05
    1.2859996408e-02    1.0120000000e+05
    1.2869875878e-02    1.0120000000e+05
    1.2879754417e-02    1.0120000000e+05
    1.2889633887e-02    1.0120000000e+05
    1.2899879366e-02    1.0120000000e+05
    1.2909758836e-02    1.0120000000e+05
    1.2919639237e-02    1.0120000000e+05
    1.2929884717e-02    1.0120000000e+05
    1.2939765118e-02    1.0120000000e+05
    1.2949645519e-02    1.0120000000e+05
    1.2959890999e-02    1.0120000000e+05
    1.2969771400e-02    1.0120000000e+05
    1.2979652733e-02    1.0120000000e+05
    1.2989899144e-02    1.0120000000e+05
    1.2999779545e-02    1.0120000000e+05
    1.3009660877e-02    1.0120000000e+05
    1.3019908220e-02    1.0120000000e+05
    1.3029789552e-02    1.0120000000e+05
    1.3039670885e-02    1.0120000000e+05
    1.3049918227e-02    1.0120000000e+05
    1.3059800491e-02    1.0120000000e+05
    1.3069681823e-02    1.0120000000e+05
    1.3079930097e-02    1.0120000000e+05
    1.3089813292e-02    1.0120000000e+05
    1.3099695556e-02    1.0120000000e+05
    1.3109944761e-02    1.0120000000e+05
    1.3119827025e-02    1.0120000000e+05
    1.3129710220e-02    1.0120000000e+05
    1.3139959425e-02    1.0120000000e+05
    1.3149843551e-02    1.0120000000e+05
    1.3159726746e-02    1.0120000000e+05
    1.3169976883e-02    1.0120000000e+05
    1.3179861009e-02    1.0120000000e+05
    1.3189745136e-02    1.0120000000e+05
    1.3199996203e-02    1.0120000000e+05
    1.3209880330e-02    1.0120000000e+05
    1.3219765387e-02    1.0120000000e+05
    1.3229650445e-02    1.0120000000e+05
    1.3239902444e-02    1.0120000000e+05
    1.3249787502e-02    1.0120000000e+05
    1.3259673491e-02    1.0120000000e+05
    1.3269925490e-02    1.0120000000e+05
    1.3279812410e-02    1.0120000000e+05
    1.3289698400e-02    1.0120000000e+05
    1.3299951330e-02    1.0120000000e+05
    1.3309838250e-02    1.0120000000e+05
    1.3319725171e-02    1.0120000000e+05
    1.3329978101e-02    1.0120000000e+05
    1.3339865953e-02    1.0120000000e+05
    1.3349752873e-02    1.0120000000e+05
    1.3359640725e-02    1.0120000000e+05
    1.3369895518e-02    1.0120000000e+05
    1.3379783370e-02    1.0120000000e+05
    1.3389672153e-02    1.0120000000e+05
    1.3399926946e-02    1.0120000000e+05
    1.3409815729e-02    1.0120000000e+05
    1.3419704512e-02    1.0120000000e+05
    1.3429959305e-02    1.0120000000e+05
    1.3439849019e-02    1.0120000000e+05
    1.3449738733e-02    1.0120000000e+05
    1.3459994458e-02    1.0120000000e+05
    1.3469884172e-02    1.0120000000e+05
    1.3479774818e-02    1.0120000000e+05
    1.3489664532e-02    1.0120000000e+05
    1.3499921188e-02    1.0120000000e+05
    1.3509811834e-02    1.0120000000e+05
    1.3519703411e-02    1.0120000000e+05
    1.3529960066e-02    1.0120000000e+05
    1.3539851643e-02    1.0120000000e+05
    1.3549742289e-02    1.0120000000e+05
    1.3559633866e-02    1.0120000000e+05
    1.3569891453e-02    1.0120000000e+05
    1.3579782099e-02    1.0120000000e+05
    1.3589673676e-02    1.0120000000e+05
    1.3599931262e-02    1.0120000000e+05
    1.3609821908e-02    1.0120000000e+05
    1.3619713485e-02    1.0120000000e+05
    1.3629971072e-02    1.0120000000e+05
    1.3639862649e-02    1.0120000000e+05
    1.3649754226e-02    1.0120000000e+05
    1.3659645803e-02    1.0120000000e+05
    1.3669904321e-02    1.0120000000e+05
    1.3679795898e-02    1.0120000000e+05
    1.3689688407e-02    1.0120000000e+05
    1.3699947856e-02    1.0120000000e+05
    1.3709841296e-02    1.0120000000e+05
    1.3719734736e-02    1.0120000000e+05
    1.3729996048e-02    1.0120000000e+05
    1.3739891350e-02    1.0120000000e+05
    1.3749786653e-02    1.0120000000e+05
    1.3759681955e-02    1.0120000000e+05
    1.3769943267e-02    1.0120000000e+05
    1.3779838569e-02    1.0120000000e+05
    1.3789733872e-02    1.0120000000e+05
    1.3799995184e-02    1.0120000000e+05
    1.3809891418e-02    1.0120000000e+05
    1.3819786720e-02    1.0120000000e+05
    1.3829682022e-02    1.0120000000e+05
    1.3839944266e-02    1.0120000000e+05
    1.3849840499e-02    1.0120000000e+05
    1.3859735802e-02    1.0120000000e+05
    1.3869998977e-02    1.0120000000e+05
    1.3879895210e-02    1.0120000000e+05
    1.3889790513e-02    1.0120000000e+05
    1.3899687678e-02    1.0120000000e+05
    1.3909949921e-02    1.0120000000e+05
    1.3919846155e-02    1.0120000000e+05
    1.3929743320e-02    1.0120000000e+05
    1.3939639553e-02    1.0120000000e+05
    1.3949902728e-02    1.0120000000e+05
    1.3959798962e-02    1.0120000000e+05
    1.3969696127e-02    1.0120000000e+05
    1.3979959302e-02    1.0120000000e+05
    1.3989856467e-02    1.0120000000e+05
    1.3999753632e-02    1.0120000000e+05
    1.4009649865e-02    1.0120000000e+05
    1.4019913971e-02    1.0120000000e+05
    1.4029811136e-02    1.0120000000e+05
    1.4039708301e-02    1.0120000000e+05
    1.4049971476e-02    1.0120000000e+05
    1.4059868641e-02    1.0120000000e+05
    1.4069765806e-02    1.0120000000e+05
    1.4079662971e-02    1.0120000000e+05
    1.4089926146e-02    1.0120000000e+05
    1.4099823311e-02    1.0120000000e+05
    1.4109720476e-02    1.0120000000e+05
    1.4119983651e-02    1.0120000000e+05
    1.4129880816e-02    1.0120000000e+05
    1.4139777981e-02    1.0120000000e+05
    1.4149675146e-02    1.0120000000e+05
    1.4159938321e-02    1.0120000000e+05
    1.4169835486e-02    1.0120000000e+05
    1.4179732651e-02    1.0120000000e+05
    1.4189995825e-02    1.0120000000e+05
    1.4199892990e-02    1.0120000000e+05
    1.4209789224e-02    1.0120000000e+05
    1.4219686389e-02    1.0120000000e+05
    1.4229949564e-02    1.0120000000e+05
    1.4239846729e-02    1.0120000000e+05
    1.4249742962e-02    1.0120000000e+05
    1.4259640127e-02    1.0120000000e+05
    1.4269903302e-02    1.0120000000e+05
    1.4279800467e-02    1.0120000000e+05
    1.4289696701e-02    1.0120000000e+05
    1.4299959876e-02    1.0120000000e+05
    1.4309856109e-02    1.0120000000e+05
    1.4319753274e-02    1.0120000000e+05
    1.4329649508e-02    1.0120000000e+05
    1.4339912683e-02    1.0120000000e+05
    1.4349808916e-02    1.0120000000e+05
    1.4359705150e-02    1.0120000000e+05
    1.4369968325e-02    1.0120000000e+05
    1.4379864559e-02    1.0120000000e+05
    1.4389760792e-02    1.0120000000e+05
    1.4399657026e-02    1.0120000000e+05
    1.4409920201e-02    1.0120000000e+05
    1.4419816434e-02    1.0120000000e+05
    1.4429712668e-02    1.0120000000e+05
    1.4439975843e-02    1.0120000000e+05
    1.4449872077e-02    1.0120000000e+05
    1.4459767379e-02    1.0120000000e+05
    1.4469663613e-02    1.0120000000e+05
    1.4479926787e-02    1.0120000000e+05
    1.4489823021e-02    1.0120000000e+05
    1.4499718323e-02    1.0120000000e+05
    1.4509981498e-02    1.0120000000e+05
    1.4519877732e-02    1.0120000000e+05
    1.4529773034e-02    1.0120000000e+05
    1.4539669268e-02    1.0120000000e+05
    1.4549932443e-02    1.0120000000e+05
    1.4559828676e-02    1.0120000000e+05
    1.4569724910e-02    1.0120000000e+05
    1.4579987153e-02    1.0120000000e+05
    1.4589884318e-02    1.0120000000e+05
    1.4599781483e-02    1.0120000000e+05
    1.4609678648e-02    1.0120000000e+05
    1.4619942755e-02    1.0120000000e+05
    1.4629840851e-02    1.0120000000e+05
    1.4639738947e-02    1.0120000000e+05
    1.4649637975e-02    1.0120000000e+05
    1.4659903944e-02    1.0120000000e+05
    1.4669802971e-02    1.0120000000e+05
    1.4679701068e-02    1.0120000000e+05
    1.4689966105e-02    1.0120000000e+05
    1.4699862339e-02    1.0120000000e+05
    1.4709756710e-02    1.0120000000e+05
    1.4719650149e-02    1.0120000000e+05
    1.4729908668e-02    1.0120000000e+05
    1.4739800245e-02    1.0120000000e+05
    1.4749690890e-02    1.0120000000e+05
    1.4759954996e-02    1.0120000000e+05
    1.4769860543e-02    1.0120000000e+05
    1.4779767022e-02    1.0120000000e+05
    1.4789674431e-02    1.0120000000e+05
    1.4799949713e-02    1.0120000000e+05
    1.4809858985e-02    1.0120000000e+05
    1.4819770120e-02    1.0120000000e+05
    1.4829681255e-02    1.0120000000e+05
    1.4839960262e-02    1.0120000000e+05
    1.4849873260e-02    1.0120000000e+05
    1.4859787188e-02    1.0120000000e+05
    1.4869701117e-02    1.0120000000e+05
    1.4879983850e-02    1.0120000000e+05
    1.4889899641e-02    1.0120000000e+05
    1.4899815433e-02    1.0120000000e+05
    1.4909733087e-02    1.0120000000e+05
    1.4919650741e-02    1.0120000000e+05
    1.4929936267e-02    1.0120000000e+05
    1.4939854853e-02    1.0120000000e+05
    1.4949773438e-02    1.0120000000e+05
    1.4959692955e-02    1.0120000000e+05
    1.4969980344e-02    1.0120000000e+05
    1.4979900792e-02    1.0120000000e+05
    1.4989822172e-02    1.0120000000e+05
    1.4999743551e-02    1.0120000000e+05
    1.5009664930e-02    1.0120000000e+05
    1.5019954182e-02    1.0120000000e+05
    1.5029876493e-02    1.0120000000e+05
    1.5039798804e-02    1.0120000000e+05
    1.5049721114e-02    1.0120000000e+05
    1.5059644356e-02    1.0120000000e+05
    1.5069934539e-02    1.0120000000e+05
    1.5079857782e-02    1.0120000000e+05
    1.5089781955e-02    1.0120000000e+05
    1.5099705197e-02    1.0120000000e+05
    1.5109996311e-02    1.0120000000e+05
    1.5119919553e-02    1.0120000000e+05
    1.5129843727e-02    1.0120000000e+05
    1.5139767900e-02    1.0120000000e+05
    1.5149691142e-02    1.0120000000e+05
    1.5159983188e-02    1.0120000000e+05
    1.5169906430e-02    1.0120000000e+05
    1.5179830603e-02    1.0120000000e+05
    1.5189753845e-02    1.0120000000e+05
    1.5199678019e-02    1.0120000000e+05
    1.5209969133e-02    1.0120000000e+05
    1.5219893306e-02    1.0120000000e+05
    1.5229817480e-02    1.0120000000e+05
    1.5239740722e-02    1.0120000000e+05
    1.5249664895e-02    1.0120000000e+05
    1.5259956010e-02    1.0120000000e+05
    1.5269879252e-02    1.0120000000e+05
    1.5279803425e-02    1.0120000000e+05
    1.5289726667e-02    1.0120000000e+05
    1.5299649909e-02    1.0120000000e+05
    1.5309941024e-02    1.0120000000e+05
    1.5319865197e-02    1.0120000000e+05
    1.5329788439e-02    1.0120000000e+05
    1.5339711681e-02    1.0120000000e+05
    1.5349635854e-02    1.0120000000e+05
    1.5359926969e-02    1.0120000000e+05
    1.5369850211e-02    1.0120000000e+05
    1.5379773453e-02    1.0120000000e+05
    1.5389696695e-02    1.0120000000e+05
    1.5399987809e-02    1.0120000000e+05
    1.5409911051e-02    1.0120000000e+05
    1.5419835225e-02    1.0120000000e+05
    1.5429758467e-02    1.0120000000e+05
    1.5439681709e-02    1.0120000000e+05
    1.5449972823e-02    1.0120000000e+05
    1.5459896065e-02    1.0120000000e+05
    1.5469819307e-02    1.0120000000e+05
    1.5479742549e-02    1.0120000000e+05
    1.5489665791e-02    1.0120000000e+05
    1.5499956906e-02    1.0120000000e+05
    1.5509880148e-02    1.0120000000e+05
    1.5519804321e-02    1.0120000000e+05
    1.5529727563e-02    1.0120000000e+05
    1.5539650805e-02    1.0120000000e+05
    1.5549941920e-02    1.0120000000e+05
    1.5559865162e-02    1.0120000000e+05
    1.5569788404e-02    1.0120000000e+05
    1.5579711646e-02    1.0120000000e+05
    1.5589635819e-02    1.0120000000e+05
    1.5599926934e-02    1.0120000000e+05
    1.5609850176e-02    1.0120000000e+05
    1.5619773418e-02    1.0120000000e+05
    1.5629697591e-02    1.0120000000e+05
    1.5639988706e-02    1.0120000000e+05
    1.5649911016e-02    1.0120000000e+05
    1.5659835190e-02    1.0120000000e+05
    1.5669759363e-02    1.0120000000e+05
    1.5679681674e-02    1.0120000000e+05
    1.5689972788e-02    1.0120000000e+05
    1.5699896961e-02    1.0120000000e+05
    1.5709821135e-02    1.0120000000e+05
    1.5719743446e-02    1.0120000000e+05
    1.5729667619e-02    1.0120000000e+05
    1.5739958733e-02    1.0120000000e+05
    1.5749882907e-02    1.0120000000e+05
    1.5759805217e-02    1.0120000000e+05
    1.5769729391e-02    1.0120000000e+05
    1.5779653564e-02    1.0120000000e+05
    1.5789944679e-02    1.0120000000e+05
    1.5799866989e-02    1.0120000000e+05
    1.5809791163e-02    1.0120000000e+05
    1.5819715336e-02    1.0120000000e+05
    1.5829637647e-02    1.0120000000e+05
    1.5839928761e-02    1.0120000000e+05
    1.5849852934e-02    1.0120000000e+05
    1.5859777108e-02    1.0120000000e+05
    1.5869699419e-02    1.0120000000e+05
    1.5879990533e-02    1.0120000000e+05
    1.5889914706e-02    1.0120000000e+05
    1.5899838880e-02    1.0120000000e+05
    1.5909761190e-02    1.0120000000e+05
    1.5919685364e-02    1.0120000000e+05
    1.5929976478e-02    1.0120000000e+05
    1.5939898789e-02    1.0120000000e+05
    1.5949822962e-02    1.0120000000e+05
    1.5959747136e-02    1.0120000000e+05
    1.5969669446e-02    1.0120000000e+05
    1.5979960561e-02    1.0120000000e+05
    1.5989884734e-02    1.0120000000e+05
    1.5999808908e-02    1.0120000000e+05
    1.6009731218e-02    1.0120000000e+05
    1.6019655392e-02    1.0120000000e+05
    1.6029946506e-02    1.0120000000e+05
    1.6039870679e-02    1.0120000000e+05
    1.6049792990e-02    1.0120000000e+05
    1.6059717163e-02    1.0120000000e+05
    1.6069641337e-02    1.0120000000e+05
    1.6079932451e-02    1.0120000000e+05
    1.6089854762e-02    1.0120000000e+05
    1.6099778935e-02    1.0120000000e+05
    1.6109703109e-02    1.0120000000e+05
    1.6119994223e-02    1.0120000000e+05
    1.6129916534e-02    1.0120000000e+05
    1.6139840707e-02    1.0120000000e+05
    1.6149764881e-02    1.0120000000e+05
    1.6159689054e-02    1.0120000000e+05
    1.6169980168e-02    1.0120000000e+05
    1.6179902479e-02    1.0120000000e+05
    1.6189826652e-02    1.0120000000e+05
    1.6199750826e-02    1.0120000000e+05
    1.6209674999e-02    1.0120000000e+05
    1.6219966114e-02    1.0120000000e+05
    1.6229890287e-02    1.0120000000e+05
    1.6239814460e-02    1.0120000000e+05
    1.6249736771e-02    1.0120000000e+05
    1.6259660944e-02    1.0120000000e+05
    1.6269953921e-02    1.0120000000e+05
    1.6279876232e-02    1.0120000000e+05
    1.6289800406e-02    1.0120000000e+05
    1.6299724579e-02    1.0120000000e+05
    1.6309648752e-02    1.0120000000e+05
    1.6319941729e-02    1.0120000000e+05
    1.6329865903e-02    1.0120000000e+05
    1.6339790076e-02    1.0120000000e+05
    1.6349714249e-02    1.0120000000e+05
    1.6359638423e-02    1.0120000000e+05
    1.6369929537e-02    1.0120000000e+05
    1.6379853711e-02    1.0120000000e+05
    1.6389777884e-02    1.0120000000e+05
    1.6399703920e-02    1.0120000000e+05
    1.6409995034e-02    1.0120000000e+05
    1.6419919208e-02    1.0120000000e+05
    1.6429845244e-02    1.0120000000e+05
    1.6439769417e-02    1.0120000000e+05
    1.6449693590e-02    1.0120000000e+05
    1.6459986567e-02    1.0120000000e+05
    1.6469910741e-02    1.0120000000e+05
    1.6479834914e-02    1.0120000000e+05
    1.6489760950e-02    1.0120000000e+05
    1.6499685124e-02    1.0120000000e+05
    1.6509978101e-02    1.0120000000e+05
    1.6519904137e-02    1.0120000000e+05
    1.6529828310e-02    1.0120000000e+05
    1.6539754346e-02    1.0120000000e+05
    1.6549678519e-02    1.0120000000e+05
    1.6559971496e-02    1.0120000000e+05
    1.6569897532e-02    1.0120000000e+05
    1.6579821706e-02    1.0120000000e+05
    1.6589747742e-02    1.0120000000e+05
    1.6599673778e-02    1.0120000000e+05
    1.6609966755e-02    1.0120000000e+05
    1.6619892791e-02    1.0120000000e+05
    1.6629818827e-02    1.0120000000e+05
    1.6639744863e-02    1.0120000000e+05
    1.6649669036e-02    1.0120000000e+05
    1.6659963876e-02    1.0120000000e+05
    1.6669889912e-02    1.0120000000e+05
    1.6679815948e-02    1.0120000000e+05
    1.6689741984e-02    1.0120000000e+05
    1.6699668020e-02    1.0120000000e+05
    1.6709960997e-02    1.0120000000e+05
    1.6719887033e-02    1.0120000000e+05
    1.6729814932e-02    1.0120000000e+05
    1.6739740968e-02    1.0120000000e+05
    1.6749667004e-02    1.0120000000e+05
    1.6759959981e-02    1.0120000000e+05
    1.6769887879e-02    1.0120000000e+05
    1.6779813915e-02    1.0120000000e+05
    1.6789739951e-02    1.0120000000e+05
    1.6799665987e-02    1.0120000000e+05
    1.6809960827e-02    1.0120000000e+05
    1.6819886863e-02    1.0120000000e+05
    1.6829812899e-02    1.0120000000e+05
    1.6839738935e-02    1.0120000000e+05
    1.6849666834e-02    1.0120000000e+05
    1.6859959811e-02    1.0120000000e+05
    1.6869887710e-02    1.0120000000e+05
    1.6879813746e-02    1.0120000000e+05
    1.6889741644e-02    1.0120000000e+05
    1.6899669543e-02    1.0120000000e+05
    1.6909964383e-02    1.0120000000e+05
    1.6919890419e-02    1.0120000000e+05
    1.6929818317e-02    1.0120000000e+05
    1.6939746216e-02    1.0120000000e+05
    1.6949674115e-02    1.0120000000e+05
    1.6959968954e-02    1.0120000000e+05
    1.6969896853e-02    1.0120000000e+05
    1.6979824752e-02    1.0120000000e+05
    1.6989750788e-02    1.0120000000e+05
    1.6999678686e-02    1.0120000000e+05
    1.7009975389e-02    1.0120000000e+05
    1.7019903287e-02    1.0120000000e+05
    1.7029831186e-02    1.0120000000e+05
    1.7039759085e-02    1.0120000000e+05
    1.7049686983e-02    1.0120000000e+05
    1.7059981823e-02    1.0120000000e+05
    1.7069909722e-02    1.0120000000e+05
    1.7079837620e-02    1.0120000000e+05
    1.7089765519e-02    1.0120000000e+05
    1.7099695280e-02    1.0120000000e+05
    1.7109990120e-02    1.0120000000e+05
    1.7119918019e-02    1.0120000000e+05
    1.7129847780e-02    1.0120000000e+05
    1.7139775679e-02    1.0120000000e+05
    1.7149703577e-02    1.0120000000e+05
    1.7159631476e-02    1.0120000000e+05
    1.7169928178e-02    1.0120000000e+05
    1.7179857939e-02    1.0120000000e+05
    1.7189785838e-02    1.0120000000e+05
    1.7199713737e-02    1.0120000000e+05
    1.7209643498e-02    1.0120000000e+05
    1.7219940200e-02    1.0120000000e+05
    1.7229868099e-02    1.0120000000e+05
    1.7239795998e-02    1.0120000000e+05
    1.7249725759e-02    1.0120000000e+05
    1.7259653658e-02    1.0120000000e+05
    1.7269950360e-02    1.0120000000e+05
    1.7279880121e-02    1.0120000000e+05
    1.7289808020e-02    1.0120000000e+05
    1.7299737781e-02    1.0120000000e+05
    1.7309667543e-02    1.0120000000e+05
    1.7319964245e-02    1.0120000000e+05
    1.7329892144e-02    1.0120000000e+05
    1.7339821905e-02    1.0120000000e+05
    1.7349749804e-02    1.0120000000e+05
    1.7359679565e-02    1.0120000000e+05
    1.7369976267e-02    1.0120000000e+05
    1.7379904166e-02    1.0120000000e+05
    1.7389833927e-02    1.0120000000e+05
    1.7399761826e-02    1.0120000000e+05
    1.7409691587e-02    1.0120000000e+05
    1.7419988289e-02    1.0120000000e+05
    1.7429918051e-02    1.0120000000e+05
    1.7439845949e-02    1.0120000000e+05
    1.7449775711e-02    1.0120000000e+05
    1.7459703609e-02    1.0120000000e+05
    1.7469633371e-02    1.0120000000e+05
    1.7479930073e-02    1.0120000000e+05
    1.7489857972e-02    1.0120000000e+05
    1.7499787733e-02    1.0120000000e+05
    1.7509715632e-02    1.0120000000e+05
    1.7519645393e-02    1.0120000000e+05
    1.7529942095e-02    1.0120000000e+05
    1.7539869994e-02    1.0120000000e+05
    1.7549799755e-02    1.0120000000e+05
    1.7559727654e-02    1.0120000000e+05
    1.7569657415e-02    1.0120000000e+05
    1.7579954118e-02    1.0120000000e+05
    1.7589882016e-02    1.0120000000e+05
    1.7599811777e-02    1.0120000000e+05
    1.7609739676e-02    1.0120000000e+05
    1.7619669437e-02    1.0120000000e+05
    1.7629966140e-02    1.0120000000e+05
    1.7639894038e-02    1.0120000000e+05
    1.7649823800e-02    1.0120000000e+05
    1.7659751698e-02    1.0120000000e+05
    1.7669681460e-02    1.0120000000e+05
    1.7679978162e-02    1.0120000000e+05
    1.7689906061e-02    1.0120000000e+05
    1.7699833959e-02    1.0120000000e+05
    1.7709763721e-02    1.0120000000e+05
    1.7719691619e-02    1.0120000000e+05
    1.7729988322e-02    1.0120000000e+05
    1.7739918083e-02    1.0120000000e+05
    1.7749845982e-02    1.0120000000e+05
    1.7759775743e-02    1.0120000000e+05
    1.7769705504e-02    1.0120000000e+05
    1.7779633403e-02    1.0120000000e+05
    1.7789931968e-02    1.0120000000e+05
    1.7799861729e-02    1.0120000000e+05
    1.7809791490e-02    1.0120000000e+05
    1.7819721252e-02    1.0120000000e+05
    1.7829652876e-02    1.0120000000e+05
    1.7839949578e-02    1.0120000000e+05
    1.7849881202e-02    1.0120000000e+05
    1.7859810963e-02    1.0120000000e+05
    1.7869740725e-02    1.0120000000e+05
    1.7879670486e-02    1.0120000000e+05
    1.7889967188e-02    1.0120000000e+05
    1.7899895087e-02    1.0120000000e+05
    1.7909824848e-02    1.0120000000e+05
    1.7919754609e-02    1.0120000000e+05
    1.7929684371e-02    1.0120000000e+05
    1.7939981073e-02    1.0120000000e+05
    1.7949910834e-02    1.0120000000e+05
    1.7959842458e-02    1.0120000000e+05
    1.7969772220e-02    1.0120000000e+05
    1.7979701981e-02    1.0120000000e+05
    1.7990000546e-02    1.0120000000e+05
    1.7999930307e-02    1.0120000000e+05
    1.8009860069e-02    1.0120000000e+05
    1.8019789830e-02    1.0120000000e+05
    1.8029721454e-02    1.0120000000e+05
    1.8039651215e-02    1.0120000000e+05
    1.8049949780e-02    1.0120000000e+05
    1.8059881404e-02    1.0120000000e+05
    1.8069811165e-02    1.0120000000e+05
    1.8079742789e-02    1.0120000000e+05
    1.8089674413e-02    1.0120000000e+05
    1.8099972978e-02    1.0120000000e+05
    1.8109904602e-02    1.0120000000e+05
    1.8119836226e-02    1.0120000000e+05
    1.8129767850e-02    1.0120000000e+05
    1.8139699474e-02    1.0120000000e+05
    1.8149998039e-02    1.0120000000e+05
    1.8159931526e-02    1.0120000000e+05
    1.8169863150e-02    1.0120000000e+05
    1.8179794773e-02    1.0120000000e+05
    1.8189726397e-02    1.0120000000e+05
    1.8199659884e-02    1.0120000000e+05
    1.8209960312e-02    1.0120000000e+05
    1.8219891936e-02    1.0120000000e+05
    1.8229825422e-02    1.0120000000e+05
    1.8239757046e-02    1.0120000000e+05
    1.8249690533e-02    1.0120000000e+05
    1.8259990960e-02    1.0120000000e+05
    1.8269922584e-02    1.0120000000e+05
    1.8279856071e-02    1.0120000000e+05
    1.8289789557e-02    1.0120000000e+05
    1.8299723044e-02    1.0120000000e+05
    1.8309654668e-02    1.0120000000e+05
    1.8319956958e-02    1.0120000000e+05
    1.8329890445e-02    1.0120000000e+05
    1.8339822069e-02    1.0120000000e+05
    1.8349755555e-02    1.0120000000e+05
    1.8359689042e-02    1.0120000000e+05
    1.8369989470e-02    1.0120000000e+05
    1.8379922956e-02    1.0120000000e+05
    1.8389856443e-02    1.0120000000e+05
    1.8399789929e-02    1.0120000000e+05
    1.8409723416e-02    1.0120000000e+05
    1.8419656903e-02    1.0120000000e+05
    1.8429957330e-02    1.0120000000e+05
    1.8439890817e-02    1.0120000000e+05
    1.8449824303e-02    1.0120000000e+05
    1.8459757790e-02    1.0120000000e+05
    1.8469691277e-02    1.0120000000e+05
    1.8479991704e-02    1.0120000000e+05
    1.8489925191e-02    1.0120000000e+05
    1.8499858677e-02    1.0120000000e+05
    1.8509792164e-02    1.0120000000e+05
    1.8519725651e-02    1.0120000000e+05
    1.8529657274e-02    1.0120000000e+05
    1.8539959565e-02    1.0120000000e+05
    1.8549893051e-02    1.0120000000e+05
    1.8559824675e-02    1.0120000000e+05
    1.8569758162e-02    1.0120000000e+05
    1.8579691648e-02    1.0120000000e+05
    1.8589992076e-02    1.0120000000e+05
    1.8599925563e-02    1.0120000000e+05
    1.8609859049e-02    1.0120000000e+05
    1.8619792536e-02    1.0120000000e+05
    1.8629726022e-02    1.0120000000e+05
    1.8639659509e-02    1.0120000000e+05
    1.8649959937e-02    1.0120000000e+05
    1.8659893423e-02    1.0120000000e+05
    1.8669826910e-02    1.0120000000e+05
    1.8679758534e-02    1.0120000000e+05
    1.8689692020e-02    1.0120000000e+05
    1.8699992448e-02    1.0120000000e+05
    1.8709925935e-02    1.0120000000e+05
    1.8719859421e-02    1.0120000000e+05
    1.8729792908e-02    1.0120000000e+05
    1.8739726394e-02    1.0120000000e+05
    1.8749659881e-02    1.0120000000e+05
    1.8759960309e-02    1.0120000000e+05
    1.8769893795e-02    1.0120000000e+05
    1.8779825419e-02    1.0120000000e+05
    1.8789758906e-02    1.0120000000e+05
    1.8799692392e-02    1.0120000000e+05
    1.8809992820e-02    1.0120000000e+05
    1.8819926307e-02    1.0120000000e+05
    1.8829859793e-02    1.0120000000e+05
    1.8839793280e-02    1.0120000000e+05
    1.8849726766e-02    1.0120000000e+05
    1.8859658390e-02    1.0120000000e+05
    1.8869960681e-02    1.0120000000e+05
    1.8879894167e-02    1.0120000000e+05
    1.8889825791e-02    1.0120000000e+05
    1.8899759278e-02    1.0120000000e+05
    1.8909692764e-02    1.0120000000e+05
    1.8919993192e-02    1.0120000000e+05
    1.8929926679e-02    1.0120000000e+05
    1.8939860165e-02    1.0120000000e+05
    1.8949793652e-02    1.0120000000e+05
    1.8959725276e-02    1.0120000000e+05
    1.8969658762e-02    1.0120000000e+05
    1.8979961053e-02    1.0120000000e+05
    1.8989892676e-02    1.0120000000e+05
    1.8999826163e-02    1.0120000000e+05
    1.9009759650e-02    1.0120000000e+05
    1.9019693136e-02    1.0120000000e+05
    1.9029993564e-02    1.0120000000e+05
    1.9039927050e-02    1.0120000000e+05
    1.9049860537e-02    1.0120000000e+05
    1.9059792161e-02    1.0120000000e+05
    1.9069725648e-02    1.0120000000e+05
    1.9079659134e-02    1.0120000000e+05
    1.9089959562e-02    1.0120000000e+05
    1.9099893048e-02    1.0120000000e+05
    1.9109826535e-02    1.0120000000e+05
    1.9119760022e-02    1.0120000000e+05
    1.9129691646e-02    1.0120000000e+05
    1.9139993936e-02    1.0120000000e+05
    1.9149925560e-02    1.0120000000e+05
    1.9159859046e-02    1.0120000000e+05
    1.9169792533e-02    1.0120000000e+05
    1.9179726020e-02    1.0120000000e+05
    1.9189657643e-02    1.0120000000e+05
    1.9199959934e-02    1.0120000000e+05
    1.9209891558e-02    1.0120000000e+05
    1.9219825044e-02    1.0120000000e+05
    1.9229758531e-02    1.0120000000e+05
    1.9239692017e-02    1.0120000000e+05
    1.9249992445e-02    1.0120000000e+05
    1.9259925932e-02    1.0120000000e+05
    1.9269859418e-02    1.0120000000e+05
    1.9279791042e-02    1.0120000000e+05
    1.9289724529e-02    1.0120000000e+05
    1.9299658015e-02    1.0120000000e+05
    1.9309958443e-02    1.0120000000e+05
    1.9319891930e-02    1.0120000000e+05
    1.9329825416e-02    1.0120000000e+05
    1.9339757040e-02    1.0120000000e+05
    1.9349690527e-02    1.0120000000e+05
    1.9359990954e-02    1.0120000000e+05
    1.9369924441e-02    1.0120000000e+05
    1.9379857928e-02    1.0120000000e+05
    1.9389791414e-02    1.0120000000e+05
    1.9399723038e-02    1.0120000000e+05
    1.9409656525e-02    1.0120000000e+05
    1.9419958815e-02    1.0120000000e+05
    1.9429890439e-02    1.0120000000e+05
    1.9439823925e-02    1.0120000000e+05
[...]
    1.3513967395e-01    1.0120218750e+05
    1.3514998555e-01    1.0120218750e+05
    1.3515992463e-01    1.0120218750e+05
    1.3516986370e-01    1.0120218750e+05
    1.3517980278e-01    1.0120218750e+05
    1.3518974185e-01    1.0120218750e+05
    1.3519968092e-01    1.0120218750e+05
    1.3520999253e-01    1.0120218750e+05
    1.3521993160e-01    1.0120218750e+05
    1.3522987068e-01    1.0120217969e+05
    1.3523980975e-01    1.0120217969e+05
    1.3524974883e-01    1.0120217969e+05
    1.3525968790e-01    1.0120217969e+05
    1.3526999950e-01    1.0120217969e+05
    1.3527993858e-01    1.0120217969e+05
    1.3528987765e-01    1.0120217969e+05
    1.3529981673e-01    1.0120217969e+05
    1.3530975580e-01    1.0120217969e+05
    1.3531969488e-01    1.0120216406e+05
    1.3533000648e-01    1.0120216406e+05
    1.3533994555e-01    1.0120216406e+05
    1.3534988463e-01    1.0120216406e+05
    1.3535982370e-01    1.0120216406e+05
    1.3536976278e-01    1.0120216406e+05
    1.3537970185e-01    1.0120216406e+05
    1.3538964093e-01    1.0120216406e+05
    1.3539995253e-01    1.0120216406e+05
    1.3540989161e-01    1.0120216406e+05
    1.3541983068e-01    1.0120216406e+05
    1.3542976975e-01    1.0120216406e+05
    1.3543970883e-01    1.0120216406e+05
    1.3544964790e-01    1.0120216406e+05
    1.3545994461e-01    1.0120216406e+05
    1.3546989858e-01    1.0120216406e+05
    1.3547983766e-01    1.0120216406e+05
    1.3548977673e-01    1.0120216406e+05
    1.3549971581e-01    1.0120216406e+05
    1.3550965488e-01    1.0120215625e+05
    1.3551995158e-01    1.0120215625e+05
    1.3552989066e-01    1.0120215625e+05
    1.3553984463e-01    1.0120215625e+05
    1.3554978371e-01    1.0120215625e+05
    1.3555972278e-01    1.0120215625e+05
    1.3556966186e-01    1.0120215625e+05
    1.3557995856e-01    1.0120215625e+05
    1.3558989763e-01    1.0120215625e+05
    1.3559983671e-01    1.0120215625e+05
    1.3560979068e-01    1.0120214844e+05
    1.3561972976e-01    1.0120214844e+05
    1.3562966883e-01    1.0120214844e+05
    1.3563996553e-01    1.0120214844e+05
    1.3564990461e-01    1.0120214844e+05
    1.3565984368e-01    1.0120214844e+05
    1.3566978276e-01    1.0120214844e+05
    1.3567972183e-01    1.0120214844e+05
    1.3568967581e-01    1.0120214844e+05
    1.3569997251e-01    1.0120214844e+05
    1.3570991158e-01    1.0120214844e+05
    1.3571985066e-01    1.0120214844e+05
    1.3572978973e-01    1.0120214844e+05
    1.3573972881e-01    1.0120214844e+05
    1.3574966788e-01    1.0120214844e+05
    1.3575997949e-01    1.0120214844e+05
    1.3576991856e-01    1.0120214844e+05
    1.3577985764e-01    1.0120214844e+05
    1.3578979671e-01    1.0120214844e+05
    1.3579973578e-01    1.0120213281e+05
    1.3580967486e-01    1.0120213281e+05
    1.3581998646e-01    1.0120213281e+05
    1.3582992554e-01    1.0120213281e+05
    1.3583986461e-01    1.0120213281e+05
    1.3584980369e-01    1.0120213281e+05
    1.3585974276e-01    1.0120213281e+05
    1.3586968184e-01    1.0120213281e+05
    1.3587999344e-01    1.0120213281e+05
    1.3588993251e-01    1.0120212500e+05
    1.3589987159e-01    1.0120212500e+05
    1.3590981066e-01    1.0120212500e+05
    1.3591974974e-01    1.0120212500e+05
    1.3592968881e-01    1.0120212500e+05
    1.3593962789e-01    1.0120212500e+05
    1.3594993949e-01    1.0120212500e+05
    1.3595987856e-01    1.0120212500e+05
    1.3596981764e-01    1.0120212500e+05
    1.3597975671e-01    1.0120212500e+05
    1.3598969579e-01    1.0120211719e+05
    1.3599963486e-01    1.0120211719e+05
    1.3600994647e-01    1.0120211719e+05
    1.3601988554e-01    1.0120211719e+05
    1.3602982461e-01    1.0120211719e+05
    1.3603976369e-01    1.0120211719e+05
    1.3604970276e-01    1.0120211719e+05
    1.3605964184e-01    1.0120211719e+05
    1.3606995344e-01    1.0120211719e+05
    1.3607989252e-01    1.0120211719e+05
    1.3608983159e-01    1.0120210156e+05
    1.3609977067e-01    1.0120210156e+05
    1.3610970974e-01    1.0120210156e+05
    1.3611964881e-01    1.0120210156e+05
    1.3612996042e-01    1.0120210156e+05
    1.3613989949e-01    1.0120210156e+05
    1.3614983857e-01    1.0120210156e+05
    1.3615977764e-01    1.0120210156e+05
    1.3616971672e-01    1.0120210156e+05
    1.3617965579e-01    1.0120210156e+05
    1.3618996739e-01    1.0120210156e+05
    1.3619990647e-01    1.0120210156e+05
    1.3620984554e-01    1.0120210156e+05
    1.3621978462e-01    1.0120210156e+05
    1.3622972369e-01    1.0120210156e+05
    1.3623966277e-01    1.0120210156e+05
    1.3624997437e-01    1.0120210156e+05
    1.3625991344e-01    1.0120210156e+05
    1.3626985252e-01    1.0120210156e+05
    1.3627979159e-01    1.0120209375e+05
    1.3628973067e-01    1.0120209375e+05
    1.3629966974e-01    1.0120209375e+05
    1.3630998135e-01    1.0120209375e+05
    1.3631992042e-01    1.0120209375e+05
    1.3632985950e-01    1.0120209375e+05
    1.3633979857e-01    1.0120209375e+05
    1.3634973764e-01    1.0120209375e+05
    1.3635967672e-01    1.0120209375e+05
    1.3636998832e-01    1.0120209375e+05
    1.3637992740e-01    1.0120208594e+05
    1.3638986647e-01    1.0120208594e+05
    1.3639980555e-01    1.0120208594e+05
    1.3640974462e-01    1.0120208594e+05
    1.3641968369e-01    1.0120208594e+05
    1.3642999530e-01    1.0120208594e+05
    1.3643993437e-01    1.0120208594e+05
    1.3644987345e-01    1.0120208594e+05
    1.3645981252e-01    1.0120208594e+05
    1.3646975160e-01    1.0120208594e+05
    1.3647969067e-01    1.0120208594e+05
    1.3649000227e-01    1.0120208594e+05
    1.3649994135e-01    1.0120208594e+05
    1.3650988042e-01    1.0120208594e+05
    1.3651981950e-01    1.0120208594e+05
    1.3652975857e-01    1.0120208594e+05
    1.3653969765e-01    1.0120208594e+05
    1.3654963672e-01    1.0120208594e+05
    1.3655994833e-01    1.0120208594e+05
    1.3656988740e-01    1.0120208594e+05
    1.3657982647e-01    1.0120207031e+05
    1.3658976555e-01    1.0120207031e+05
    1.3659970462e-01    1.0120207031e+05
    1.3660964370e-01    1.0120207031e+05
    1.3661995530e-01    1.0120207031e+05
    1.3662989438e-01    1.0120207031e+05
    1.3663983345e-01    1.0120207031e+05
    1.3664977252e-01    1.0120207031e+05
    1.3665971160e-01    1.0120207031e+05
    1.3666965067e-01    1.0120207031e+05
    1.3667996228e-01    1.0120206250e+05
    1.3668990135e-01    1.0120206250e+05
    1.3669984043e-01    1.0120206250e+05
    1.3670977950e-01    1.0120206250e+05
    1.3671971858e-01    1.0120206250e+05
    1.3672965765e-01    1.0120206250e+05
    1.3673995435e-01    1.0120206250e+05
    1.3674990833e-01    1.0120206250e+05
    1.3675984740e-01    1.0120206250e+05
    1.3676978648e-01    1.0120206250e+05
    1.3677972555e-01    1.0120206250e+05
    1.3678966463e-01    1.0120205469e+05
    1.3679996133e-01    1.0120205469e+05
    1.3680990040e-01    1.0120205469e+05
    1.3681983948e-01    1.0120205469e+05
    1.3682979345e-01    1.0120205469e+05
    1.3683973253e-01    1.0120205469e+05
    1.3684967160e-01    1.0120205469e+05
    1.3685996830e-01    1.0120205469e+05
    1.3686990738e-01    1.0120205469e+05
    1.3687984645e-01    1.0120205469e+05
    1.3688978553e-01    1.0120203906e+05
    1.3689973950e-01    1.0120203906e+05
    1.3690967858e-01    1.0120203906e+05
    1.3691997528e-01    1.0120203906e+05
    1.3692991436e-01    1.0120203906e+05
    1.3693985343e-01    1.0120203906e+05
    1.3694979250e-01    1.0120203906e+05
    1.3695973158e-01    1.0120203906e+05
    1.3696968555e-01    1.0120203906e+05
    1.3697998226e-01    1.0120203906e+05
    1.3698992133e-01    1.0120203906e+05
    1.3699986041e-01    1.0120203906e+05
    1.3700979948e-01    1.0120203906e+05
    1.3701973855e-01    1.0120203906e+05
    1.3702967763e-01    1.0120203906e+05
    1.3703998923e-01    1.0120203906e+05
    1.3704992831e-01    1.0120203906e+05
    1.3705986738e-01    1.0120203906e+05
    1.3706980646e-01    1.0120203906e+05
    1.3707974553e-01    1.0120203906e+05
    1.3708968461e-01    1.0120203125e+05
    1.3709999621e-01    1.0120203125e+05
    1.3710993528e-01    1.0120203125e+05
    1.3711987436e-01    1.0120203125e+05
    1.3712981343e-01    1.0120203125e+05
    1.3713975251e-01    1.0120203125e+05
    1.3714969158e-01    1.0120203125e+05
    1.3715963066e-01    1.0120203125e+05
    1.3716994226e-01    1.0120203125e+05
    1.3717988133e-01    1.0120203125e+05
    1.3718982041e-01    1.0120202344e+05
    1.3719975948e-01    1.0120202344e+05
    1.3720969856e-01    1.0120202344e+05
    1.3721963763e-01    1.0120202344e+05
    1.3722994924e-01    1.0120202344e+05
    1.3723988831e-01    1.0120202344e+05
    1.3724982738e-01    1.0120202344e+05
    1.3725976646e-01    1.0120202344e+05
    1.3726970553e-01    1.0120202344e+05
    1.3727964461e-01    1.0120202344e+05
    1.3728995621e-01    1.0120202344e+05
    1.3729989529e-01    1.0120202344e+05
    1.3730983436e-01    1.0120202344e+05
    1.3731977344e-01    1.0120202344e+05
    1.3732971251e-01    1.0120202344e+05
    1.3733965158e-01    1.0120202344e+05
    1.3734996319e-01    1.0120202344e+05
    1.3735990226e-01    1.0120202344e+05
    1.3736984134e-01    1.0120202344e+05
    1.3737978041e-01    1.0120202344e+05
    1.3738971949e-01    1.0120202344e+05
    1.3739965856e-01    1.0120200781e+05
    1.3740997016e-01    1.0120200781e+05
    1.3741990924e-01    1.0120200781e+05
    1.3742984831e-01    1.0120200781e+05
    1.3743978739e-01    1.0120200781e+05
    1.3744972646e-01    1.0120200781e+05
    1.3745966554e-01    1.0120200781e+05
    1.3746997714e-01    1.0120200781e+05
    1.3747991621e-01    1.0120200781e+05
    1.3748985529e-01    1.0120200781e+05
    1.3749979436e-01    1.0120200781e+05
    1.3750973344e-01    1.0120200000e+05
    1.3751967251e-01    1.0120200000e+05
    1.3752998412e-01    1.0120200000e+05
    1.3753992319e-01    1.0120200000e+05
    1.3754986227e-01    1.0120200000e+05
    1.3755980134e-01    1.0120200000e+05
    1.3756974041e-01    1.0120200000e+05
    1.3757967949e-01    1.0120200000e+05
    1.3758999109e-01    1.0120200000e+05
    1.3759993017e-01    1.0120200000e+05
    1.3760986924e-01    1.0120199219e+05
    1.3761980832e-01    1.0120199219e+05
    1.3762974739e-01    1.0120199219e+05
    1.3763968647e-01    1.0120199219e+05
    1.3764999807e-01    1.0120199219e+05
    1.3765993714e-01    1.0120199219e+05
    1.3766987622e-01    1.0120199219e+05
    1.3767981529e-01    1.0120199219e+05
    1.3768975437e-01    1.0120199219e+05
    1.3769969344e-01    1.0120199219e+05
    1.3770963252e-01    1.0120199219e+05
    1.3771994412e-01    1.0120197656e+05
    1.3772988319e-01    1.0120197656e+05
    1.3773982227e-01    1.0120197656e+05
    1.3774976134e-01    1.0120197656e+05
    1.3775970042e-01    1.0120197656e+05
    1.3776963949e-01    1.0120197656e+05
    1.3777995110e-01    1.0120197656e+05
    1.3778989017e-01    1.0120197656e+05
    1.3779982924e-01    1.0120197656e+05
    1.3780976832e-01    1.0120197656e+05
    1.3781970739e-01    1.0120197656e+05
    1.3782964647e-01    1.0120197656e+05
    1.3783995807e-01    1.0120197656e+05
    1.3784989715e-01    1.0120197656e+05
    1.3785983622e-01    1.0120197656e+05
    1.3786977530e-01    1.0120197656e+05
    1.3787971437e-01    1.0120197656e+05
    1.3788965344e-01    1.0120197656e+05
    1.3789996505e-01    1.0120197656e+05
    1.3790990412e-01    1.0120197656e+05
    1.3791984320e-01    1.0120197656e+05
    1.3792978227e-01    1.0120196875e+05
    1.3793972135e-01    1.0120196875e+05
    1.3794966042e-01    1.0120196875e+05
    1.3795997202e-01    1.0120196875e+05
    1.3796991110e-01    1.0120196875e+05
    1.3797985017e-01    1.0120196875e+05
    1.3798978925e-01    1.0120196875e+05
    1.3799972832e-01    1.0120196875e+05
    1.3800966740e-01    1.0120196875e+05
    1.3801996410e-01    1.0120196875e+05
    1.3802991807e-01    1.0120196875e+05
    1.3803985715e-01    1.0120196094e+05
    1.3804979622e-01    1.0120196094e+05
    1.3805973530e-01    1.0120196094e+05
    1.3806967437e-01    1.0120196094e+05
    1.3807997108e-01    1.0120196094e+05
    1.3808991015e-01    1.0120196094e+05
    1.3809984922e-01    1.0120196094e+05
    1.3810980320e-01    1.0120196094e+05
    1.3811974227e-01    1.0120196094e+05
    1.3812968135e-01    1.0120196094e+05
    1.3813997805e-01    1.0120196094e+05
    1.3814991713e-01    1.0120196094e+05
    1.3815985620e-01    1.0120196094e+05
    1.3816979527e-01    1.0120196094e+05
    1.3817974925e-01    1.0120196094e+05
    1.3818968832e-01    1.0120196094e+05
    1.3819998503e-01    1.0120196094e+05
    1.3820992410e-01    1.0120196094e+05
    1.3821986318e-01    1.0120196094e+05
    1.3822980225e-01    1.0120196094e+05
    1.3823974133e-01    1.0120196094e+05
    1.3824969530e-01    1.0120196094e+05
    1.3825999200e-01    1.0120194531e+05
    1.3826993108e-01    1.0120194531e+05
    1.3827987015e-01    1.0120194531e+05
    1.3828980923e-01    1.0120194531e+05
    1.3829974830e-01    1.0120194531e+05
    1.3830968738e-01    1.0120194531e+05
    1.3831964135e-01    1.0120194531e+05
    1.3832993805e-01    1.0120194531e+05
    1.3833987713e-01    1.0120194531e+05
    1.3834981620e-01    1.0120194531e+05
    1.3835975528e-01    1.0120194531e+05
    1.3836969435e-01    1.0120193750e+05
    1.3837963343e-01    1.0120193750e+05
    1.3838994503e-01    1.0120193750e+05
    1.3839988410e-01    1.0120193750e+05
    1.3840982318e-01    1.0120193750e+05
    1.3841976225e-01    1.0120193750e+05
    1.3842970133e-01    1.0120193750e+05
    1.3843964040e-01    1.0120193750e+05
    1.3844995201e-01    1.0120193750e+05
    1.3845989108e-01    1.0120193750e+05
    1.3846983016e-01    1.0120193750e+05
    1.3847976923e-01    1.0120192969e+05
    1.3848970830e-01    1.0120192969e+05
    1.3849964738e-01    1.0120192969e+05
    1.3850995898e-01    1.0120192969e+05
    1.3851989806e-01    1.0120192969e+05
    1.3852983713e-01    1.0120192969e+05
    1.3853977621e-01    1.0120192969e+05
    1.3854971528e-01    1.0120192969e+05
    1.3855965436e-01    1.0120192969e+05
    1.3856996596e-01    1.0120192969e+05
    1.3857990503e-01    1.0120192969e+05
    1.3858984411e-01    1.0120191406e+05
    1.3859978318e-01    1.0120191406e+05
    1.3860972226e-01    1.0120191406e+05
    1.3861966133e-01    1.0120191406e+05
    1.3862997293e-01    1.0120191406e+05
    1.3863991201e-01    1.0120191406e+05
    1.3864985108e-01    1.0120191406e+05
    1.3865979016e-01    1.0120191406e+05
    1.3866972923e-01    1.0120191406e+05
    1.3867966831e-01    1.0120191406e+05
    1.3868997991e-01    1.0120191406e+05
    1.3869991899e-01    1.0120191406e+05
    1.3870985806e-01    1.0120191406e+05
    1.3871979713e-01    1.0120191406e+05
    1.3872973621e-01    1.0120191406e+05
    1.3873967528e-01    1.0120191406e+05
    1.3874998689e-01    1.0120191406e+05
    1.3875992596e-01    1.0120191406e+05
    1.3876986504e-01    1.0120191406e+05
    1.3877980411e-01    1.0120191406e+05
    1.3878974319e-01    1.0120191406e+05
    1.3879968226e-01    1.0120191406e+05
    1.3880999386e-01    1.0120191406e+05
    1.3881993294e-01    1.0120190625e+05
    1.3882987201e-01    1.0120190625e+05
    1.3883981109e-01    1.0120190625e+05
    1.3884975016e-01    1.0120190625e+05
    1.3885968924e-01    1.0120190625e+05
    1.3887000084e-01    1.0120190625e+05
    1.3887993991e-01    1.0120190625e+05
    1.3888987899e-01    1.0120190625e+05
    1.3889981806e-01    1.0120190625e+05
    1.3890975714e-01    1.0120190625e+05
    1.3891969621e-01    1.0120190625e+05
    1.3892963529e-01    1.0120189844e+05
    1.3893994689e-01    1.0120189844e+05
    1.3894988596e-01    1.0120189844e+05
    1.3895982504e-01    1.0120189844e+05
    1.3896976411e-01    1.0120189844e+05
    1.3897970319e-01    1.0120189844e+05
    1.3898964226e-01    1.0120189844e+05
    1.3899995387e-01    1.0120189844e+05
    1.3900989294e-01    1.0120189844e+05
    1.3901983202e-01    1.0120189844e+05
    1.3902977109e-01    1.0120189844e+05
    1.3903971016e-01    1.0120189844e+05
    1.3904964924e-01    1.0120189844e+05
    1.3905996084e-01    1.0120189844e+05
    1.3906989992e-01    1.0120189844e+05
    1.3907983899e-01    1.0120189844e+05
    1.3908977807e-01    1.0120189844e+05
    1.3909971714e-01    1.0120189844e+05
    1.3910965621e-01    1.0120189844e+05
    1.3911996782e-01    1.0120189844e+05
    1.3912990689e-01    1.0120189844e+05
    1.3913984597e-01    1.0120189844e+05
    1.3914978504e-01    1.0120189844e+05
    1.3915972412e-01    1.0120188281e+05
    1.3916966319e-01    1.0120188281e+05
    1.3917997479e-01    1.0120188281e+05
    1.3918991387e-01    1.0120188281e+05
    1.3919985294e-01    1.0120188281e+05
    1.3920979202e-01    1.0120188281e+05
    1.3921973109e-01    1.0120188281e+05
    1.3922967017e-01    1.0120188281e+05
    1.3923998177e-01    1.0120188281e+05
    1.3924992085e-01    1.0120188281e+05
    1.3925985992e-01    1.0120188281e+05
    1.3926979899e-01    1.0120187500e+05
    1.3927973807e-01    1.0120187500e+05
    1.3928967714e-01    1.0120187500e+05
    1.3929997385e-01    1.0120187500e+05
    1.3930992782e-01    1.0120187500e+05
    1.3931986690e-01    1.0120187500e+05
    1.3932980597e-01    1.0120187500e+05
    1.3933974504e-01    1.0120187500e+05
    1.3934968412e-01    1.0120187500e+05
    1.3935998082e-01    1.0120187500e+05
    1.3936991990e-01    1.0120187500e+05
    1.3937987387e-01    1.0120187500e+05
    1.3938981295e-01    1.0120186719e+05
    1.3939975202e-01    1.0120186719e+05
    1.3940969110e-01    1.0120186719e+05
    1.3941998780e-01    1.0120186719e+05
    1.3942992687e-01    1.0120186719e+05
    1.3943986595e-01    1.0120186719e+05
    1.3944980502e-01    1.0120186719e+05
    1.3945975900e-01    1.0120186719e+05
    1.3946969807e-01    1.0120186719e+05
    1.3947999477e-01    1.0120186719e+05
    1.3948993385e-01    1.0120186719e+05
    1.3949987292e-01    1.0120185156e+05
    1.3950981200e-01    1.0120185156e+05
    1.3951975107e-01    1.0120185156e+05
    1.3952970505e-01    1.0120185156e+05
    1.3953964412e-01    1.0120185156e+05
    1.3954994082e-01    1.0120185156e+05
    1.3955987990e-01    1.0120185156e+05
    1.3956981897e-01    1.0120185156e+05
    1.3957975805e-01    1.0120185156e+05
    1.3958969712e-01    1.0120185156e+05
    1.3959965110e-01    1.0120185156e+05
    1.3960994780e-01    1.0120185156e+05
    1.3961988688e-01    1.0120185156e+05
    1.3962982595e-01    1.0120185156e+05
    1.3963976502e-01    1.0120185156e+05
    1.3964970410e-01    1.0120185156e+05
    1.3965964317e-01    1.0120185156e+05
    1.3966995478e-01    1.0120185156e+05
    1.3967989385e-01    1.0120185156e+05
    1.3968983293e-01    1.0120185156e+05
    1.3969977200e-01    1.0120185156e+05
    1.3970971107e-01    1.0120185156e+05
    1.3971965015e-01    1.0120185156e+05
    1.3972996175e-01    1.0120185156e+05
    1.3973990083e-01    1.0120184375e+05
    1.3974983990e-01    1.0120184375e+05
    1.3975977898e-01    1.0120184375e+05
    1.3976971805e-01    1.0120184375e+05
    1.3977965713e-01    1.0120184375e+05
    1.3978996873e-01    1.0120184375e+05
    1.3979990780e-01    1.0120184375e+05
    1.3980984688e-01    1.0120184375e+05
    1.3981978595e-01    1.0120184375e+05
    1.3982972503e-01    1.0120184375e+05
    1.3983966410e-01    1.0120184375e+05
    1.3984997571e-01    1.0120184375e+05
    1.3985991478e-01    1.0120183594e+05
    1.3986985385e-01    1.0120183594e+05
    1.3987979293e-01    1.0120183594e+05
    1.3988973200e-01    1.0120183594e+05
    1.3989967108e-01    1.0120183594e+05
    1.3990998268e-01    1.0120183594e+05
    1.3991992176e-01    1.0120183594e+05
    1.3992986083e-01    1.0120183594e+05
    1.3993979990e-01    1.0120183594e+05
    1.3994973898e-01    1.0120183594e+05
    1.3995967805e-01    1.0120183594e+05
    1.3996998966e-01    1.0120183594e+05
    1.3997992873e-01    1.0120183594e+05
    1.3998986781e-01    1.0120183594e+05
    1.3999980688e-01    1.0120183594e+05
endcurve
