Curveplot
LS-DYNA keyword deck by LS-PrePost                          
Time
Pressure
Defined Connection
Pressure @ 13 #pts=12001
* Minval=     8.1971320312e+04 at time=         0.0193097740
* Maxval=     2.0934542188e+05 at time=         0.0084297908
    0.0000000000e+00    1.0120000000e+05
    9.9485332612e-06    1.0120000000e+05
    1.9897417587e-05    1.0120000000e+05
    2.9965654903e-05    1.0120000000e+05
    3.9993235987e-05    1.0120000000e+05
    4.9970469263e-05    1.0120000000e+05
    5.9997088101e-05    1.0120000000e+05
    6.9938905654e-05    1.0120000000e+05
    7.9998171714e-05    1.0120000000e+05
    8.9997971372e-05    1.0120000000e+05
    9.9941193184e-05    1.0120000000e+05
    1.0995503544e-04    1.0120000000e+05
    1.1995754903e-04    1.0120000000e+05
    1.2993908604e-04    1.0120000000e+05
    1.3996324560e-04    1.0120000000e+05
    1.4994938101e-04    1.0120000000e+05
    1.5996383445e-04    1.0120000000e+05
    1.6999975196e-04    1.0120000000e+05
    1.7997156829e-04    1.0120000000e+05
    1.8994933635e-04    1.0120000000e+05
    1.9992564921e-04    1.0120000000e+05
    2.0997671527e-04    1.0120000000e+05
    2.1993101109e-04    1.0120000000e+05
    2.2994846222e-04    1.0120000000e+05
    2.3993881769e-04    1.0120000000e+05
    2.4998307345e-04    1.0120000000e+05
    2.5998841738e-04    1.0120000000e+05
    2.6994713699e-04    1.0120000000e+05
    2.7994322591e-04    1.0120000000e+05
    2.8997304616e-04    1.0120000000e+05
    2.9993813951e-04    1.0120000000e+05
    3.0992369284e-04    1.0120000000e+05
    3.1991748256e-04    1.0120000000e+05
    3.2990993350e-04    1.0120000000e+05
    3.3999877633e-04    1.0120000000e+05
    3.4998691990e-04    1.0120000000e+05
    3.5996819497e-04    1.0120000000e+05
    3.6994065158e-04    1.0120000000e+05
    3.7990562851e-04    1.0120000000e+05
    3.8996143849e-04    1.0120000000e+05
    3.9990217192e-04    1.0120000000e+05
    4.0993242874e-04    1.0120000000e+05
    4.1994883213e-04    1.0120000000e+05
    4.2994925752e-04    1.0120000000e+05
    4.3993190047e-04    1.0120000000e+05
    4.4989326852e-04    1.0120000000e+05
    4.5994398533e-04    1.0120000000e+05
    4.6997389290e-04    1.0120000000e+05
    4.7998141963e-04    1.0120000000e+05
    4.8996444093e-04    1.0120000000e+05
    4.9992045388e-04    1.0120000000e+05
    5.0996377831e-04    1.0120000000e+05
    5.1997951232e-04    1.0120000000e+05
    5.2996590966e-04    1.0120000000e+05
    5.3991755703e-04    1.0120000000e+05
    5.4995674873e-04    1.0120000000e+05
    5.5996357696e-04    1.0120000000e+05
    5.6993565522e-04    1.0120000000e+05
    5.7999155251e-04    1.0120000000e+05
    5.8988988167e-04    1.0120000000e+05
    5.9999019140e-04    1.0120000000e+05
    6.0993165243e-04    1.0120000000e+05
    6.1995541910e-04    1.0120000000e+05
    6.2993745087e-04    1.0120000000e+05
    6.3987582689e-04    1.0120000000e+05
    6.4989581006e-04    1.0120000000e+05
    6.5999629442e-04    1.0120000000e+05
    6.6992430948e-04    1.0120000000e+05
    6.7993329139e-04    1.0120000000e+05
    6.8989273859e-04    1.0120000000e+05
    6.9993338548e-04    1.0120000000e+05
    7.0992251858e-04    1.0120000000e+05
    7.1998999920e-04    1.0120000000e+05
    7.2987086605e-04    1.0120000000e+05
    7.3996785795e-04    1.0120000000e+05
    7.4987101834e-04    1.0120000000e+05
    7.5999245746e-04    1.0120000000e+05
    7.6991564129e-04    1.0120000000e+05
    7.7991792932e-04    1.0120000000e+05
    7.8999710968e-04    1.0120000000e+05
    7.9987297067e-04    1.0120000000e+05
    8.0997153418e-04    1.0120000000e+05
    8.1985909492e-04    1.0120000000e+05
    8.2997116260e-04    1.0120000000e+05
    8.3986745449e-04    1.0120000000e+05
    8.4999029059e-04    1.0120000000e+05
    8.5989246145e-04    1.0120000000e+05
    8.6987140821e-04    1.0120000000e+05
    8.7992427871e-04    1.0120000000e+05
    8.8990561198e-04    1.0120000000e+05
    8.9996430324e-04    1.0120000000e+05
    9.0994476341e-04    1.0120000000e+05
    9.1984448954e-04    1.0120000000e+05
    9.2997855972e-04    1.0120000000e+05
    9.3987112632e-04    1.0120000000e+05
    9.4999984140e-04    1.0120000000e+05
    9.5988158137e-04    1.0120000000e+05
    9.6983747790e-04    1.0120000000e+05
    9.7986857872e-04    1.0120000000e+05
    9.8997051828e-04    1.0120000000e+05
    9.9998677615e-04    1.0120000000e+05
    1.0099095525e-03    1.0120000000e+05
    1.0199059034e-03    1.0120000000e+05
    1.0299766436e-03    1.0120000000e+05
    1.0399501771e-03    1.0120000000e+05
    1.0499971686e-03    1.0120000000e+05
    1.0599433444e-03    1.0120000000e+05
    1.0699621635e-03    1.0120000000e+05
    1.0798766743e-03    1.0120000000e+05
    1.0898628971e-03    1.0120000000e+05
    1.0999215301e-03    1.0120000000e+05
    1.1098717805e-03    1.0120000000e+05
    1.1198914144e-03    1.0120000000e+05
    1.1299792677e-03    1.0120000000e+05
    1.1399548966e-03    1.0120000000e+05
    1.1498212116e-03    1.0120000000e+05
    1.1599451536e-03    1.0120000000e+05
    1.1699526804e-03    1.0120000000e+05
    1.1798405321e-03    1.0120000000e+05
    1.1899897363e-03    1.0120000000e+05
    1.1998247355e-03    1.0120000000e+05
    1.2099228334e-03    1.0120000000e+05
    1.2198963668e-03    1.0120000000e+05
    1.2299395166e-03    1.0120000000e+05
    1.2398544932e-03    1.0120000000e+05
    1.2498380383e-03    1.0120000000e+05
    1.2598909670e-03    1.0120000000e+05
    1.2698112987e-03    1.0120000000e+05
    1.2797998497e-03    1.0120000000e+05
    1.2898576679e-03    1.0120000000e+05
    1.2999853352e-03    1.0120000000e+05
    1.3099752832e-03    1.0120000000e+05
    1.3198239030e-03    1.0120000000e+05
    1.3299507555e-03    1.0120000000e+05
    1.3399352320e-03    1.0120000000e+05
    1.3499881607e-03    1.0120000000e+05
    1.3598946389e-03    1.0120000000e+05
    1.3698681723e-03    1.0120000000e+05
    1.3799098087e-03    1.0120000000e+05
    1.3897999888e-03    1.0120000000e+05
    1.3999791117e-03    1.0120000000e+05
    1.4097819803e-03    1.0120000000e+05
    1.4198707649e-03    1.0120000000e+05
    1.4297966845e-03    1.0120000000e+05
    1.4397902414e-03    1.0120000000e+05
    1.4498521341e-03    1.0120000000e+05
    1.4599870192e-03    1.0120000000e+05
    1.4699620660e-03    1.0120000000e+05
    1.4797723852e-03    1.0120000000e+05
    1.4898842201e-03    1.0120000000e+05
    1.4998278348e-03    1.0120000000e+05
    1.5098387375e-03    1.0120000000e+05
    1.5199176269e-03    1.0120000000e+05
    1.5298230574e-03    1.0120000000e+05
    1.5397955431e-03    1.0120000000e+05
    1.5498350840e-03    1.0120000000e+05
    1.5599414473e-03    1.0120000000e+05
    1.5698655043e-03    1.0120000000e+05
    1.5798523091e-03    1.0120000000e+05
    1.5899061691e-03    1.0120000000e+05
    1.5997746959e-03    1.0120000000e+05
    1.6099695349e-03    1.0120000000e+05
    1.6199834645e-03    1.0120000000e+05
    1.6298061237e-03    1.0120000000e+05
    1.6399555607e-03    1.0120000000e+05
    1.6499122139e-03    1.0120000000e+05
    1.6599362716e-03    1.0120000000e+05
    1.6697623068e-03    1.0120000000e+05
    1.6799222212e-03    1.0120000000e+05
    1.6898830654e-03    1.0120000000e+05
    1.6999109648e-03    1.0120000000e+05
    1.7097342061e-03    1.0120000000e+05
    1.7198986607e-03    1.0120000000e+05
    1.7298565945e-03    1.0120000000e+05
    1.7398821656e-03    1.0120000000e+05
    1.7499765381e-03    1.0120000000e+05
    1.7598577542e-03    1.0120000000e+05
    1.7698060255e-03    1.0120000000e+05
    1.7798222834e-03    1.0120000000e+05
    1.7899076920e-03    1.0120000000e+05
    1.7997720279e-03    1.0120000000e+05
    1.8099967856e-03    1.0120000000e+05
    1.8199983751e-03    1.0120000000e+05
    1.8297719071e-03    1.0120000000e+05
    1.8399112159e-03    1.0120000000e+05
    1.8498200225e-03    1.0120000000e+05
    1.8597975140e-03    1.0120000000e+05
    1.8698439235e-03    1.0120000000e+05
    1.8799608806e-03    1.0120000000e+05
    1.8898396520e-03    1.0120000000e+05
    1.8997865263e-03    1.0120000000e+05
    1.9098026678e-03    1.0120000000e+05
    1.9198838854e-03    1.0120000000e+05
    1.9297184190e-03    1.0120000000e+05
    1.9399408484e-03    1.0120000000e+05
    1.9499200862e-03    1.0120000000e+05
    1.9599697553e-03    1.0120000000e+05
    1.9697637763e-03    1.0120000000e+05
    1.9799554721e-03    1.0120000000e+05
    1.9898889586e-03    1.0120000000e+05
    1.9998929929e-03    1.0120000000e+05
    2.0099685062e-03    1.0120000000e+05
    2.0197771955e-03    1.0120000000e+05
    2.0299970638e-03    1.0120000000e+05
    2.0399477798e-03    1.0120000000e+05
    2.0499699749e-03    1.0120000000e+05
    2.0597155672e-03    1.0120000000e+05
    2.0698821172e-03    1.0120000000e+05
    2.0797692705e-03    1.0120000000e+05
    2.0897279028e-03    1.0120000000e+05
    2.0997549873e-03    1.0120000000e+05
    2.1098579746e-03    1.0120000000e+05
    2.1196731832e-03    1.0120000000e+05
    2.1299272776e-03    1.0120000000e+05
    2.1398887038e-03    1.0120000000e+05
    2.1499241702e-03    1.0120000000e+05
    2.1596583538e-03    1.0120000000e+05
    2.1698423661e-03    1.0120000000e+05
    2.1797225345e-03    1.0120000000e+05
    2.1896760445e-03    1.0120000000e+05
    2.1997045260e-03    1.0120000000e+05
    2.2098091431e-03    1.0120000000e+05
    2.2199912928e-03    1.0120000000e+05
    2.2298565600e-03    1.0120000000e+05
    2.2397961002e-03    1.0120000000e+05
    2.2498068865e-03    1.0120000000e+05
    2.2599000949e-03    1.0120000000e+05
    2.2696636152e-03    1.0120000000e+05
    2.2799125873e-03    1.0120000000e+05
    2.2898288444e-03    1.0120000000e+05
    2.2998221684e-03    1.0120000000e+05
    2.3098939564e-03    1.0120000000e+05
    2.3196213879e-03    1.0120000000e+05
    2.3298519664e-03    1.0120000000e+05
    2.3397342302e-03    1.0120000000e+05
    2.3496891372e-03    1.0120000000e+05
    2.3596934043e-03    1.0120000000e+05
    2.3697388824e-03    1.0120000000e+05
    2.3798234761e-03    1.0120000000e+05
    2.3899418302e-03    1.0120000000e+05
    2.3996415548e-03    1.0120000000e+05
    2.4098197464e-03    1.0120000000e+05
    2.4199995678e-03    1.0120000000e+05
    2.4297465570e-03    1.0120000000e+05
    2.4399687536e-03    1.0120000000e+05
    2.4497311097e-03    1.0120000000e+05
    2.4599533062e-03    1.0120000000e+05
    2.4697093759e-03    1.0120000000e+05
    2.4799262173e-03    1.0120000000e+05
    2.4896732066e-03    1.0120000000e+05
    2.4998877198e-03    1.0120000000e+05
    2.5096540339e-03    1.0120000000e+05
    2.5198413059e-03    1.0120000000e+05
    2.5295945816e-03    1.0120000000e+05
    2.5397832505e-03    1.0120000000e+05
    2.5499647018e-03    1.0120000000e+05
    2.5597061031e-03    1.0120000000e+05
    2.5699154940e-03    1.0120000000e+05
    2.5796210393e-03    1.0120000000e+05
    2.5898148306e-03    1.0120000000e+05
    2.5999473874e-03    1.0120000000e+05
    2.6096343063e-03    1.0120000000e+05
    2.6198001578e-03    1.0120000000e+05
    2.6299306192e-03    1.0120000000e+05
    2.6396261528e-03    1.0120000000e+05
    2.6498641819e-03    1.0120000000e+05
    2.6595876552e-03    1.0120000000e+05
    2.6698284782e-03    1.0120000000e+05
    2.6796516031e-03    1.0120000000e+05
    2.6899143122e-03    1.0120000000e+05
    2.6997670066e-03    1.0120000000e+05
    2.7096134145e-03    1.0120000000e+05
    2.7199354954e-03    1.0120000000e+05
    2.7298140340e-03    1.0120000000e+05
    2.7397128288e-03    1.0120000000e+05
    2.7496218681e-03    1.0120000000e+05
    2.7599884197e-03    1.0120000000e+05
    2.7699102648e-03    1.0120000000e+05
    2.7798290830e-03    1.0120000000e+05
    2.7897504624e-03    1.0120000000e+05
    2.7996636927e-03    1.0120000000e+05
    2.8095704038e-03    1.0120000000e+05
    2.8198887594e-03    1.0120000000e+05
    2.8297516983e-03    1.0120000000e+05
    2.8395862319e-03    1.0120000000e+05
    2.8498277534e-03    1.0120000000e+05
    2.8595933691e-03    1.0120000000e+05
    2.8697554953e-03    1.0120000000e+05
    2.8798640706e-03    1.0120000000e+05
    2.8899055906e-03    1.0120000000e+05
    2.8998798225e-03    1.0120000000e+05
    2.9097918887e-03    1.0120000000e+05
    2.9196399264e-03    1.0120000000e+05
    2.9298493173e-03    1.0120000000e+05
    2.9399909545e-03    1.0120000000e+05
    2.9496471398e-03    1.0120000000e+05
    2.9596590903e-03    1.0120000000e+05
    2.9696037527e-03    1.0120000000e+05
    2.9798967298e-03    1.0120000000e+05
    2.9897133354e-03    1.0120000000e+05
    2.9998719692e-03    1.0120000000e+05
    3.0099633150e-03    1.0120000000e+05
    3.0199885368e-03    1.0120000000e+05
    3.0299478676e-03    1.0120000000e+05
    3.0398378149e-03    1.0120000000e+05
    3.0496679246e-03    1.0120000000e+05
    3.0598239973e-03    1.0120000000e+05
    3.0699118506e-03    1.0120000000e+05
    3.0799326487e-03    1.0120000000e+05
    3.0898868572e-03    1.0120000000e+05
    3.0997751746e-03    1.0120000000e+05
    3.1099719927e-03    1.0120000000e+05
    3.1197268981e-03    1.0120000000e+05
    3.1297896057e-03    1.0120000000e+05
    3.1397845596e-03    1.0120000000e+05
    3.1497110613e-03    1.0120000000e+05
    3.1599348877e-03    1.0120000000e+05
    3.1697254162e-03    1.0120000000e+05
    3.1798090786e-03    1.0120000000e+05
    3.1898221932e-03    1.0120000000e+05
    3.1997652259e-03    1.0120000000e+05
    3.2099904492e-03    1.0120000000e+05
    3.2197933178e-03    1.0120000000e+05
    3.2298741862e-03    1.0120000000e+05
    3.2398828771e-03    1.0120000000e+05
    3.2498193905e-03    1.0120000000e+05
    3.2596841920e-03    1.0120000000e+05
    3.2698139548e-03    1.0120000000e+05
    3.2798682805e-03    1.0120000000e+05
    3.2898476347e-03    1.0120000000e+05
    3.2997522503e-03    1.0120000000e+05
    3.3099090215e-03    1.0120000000e+05
    3.3199866302e-03    1.0120000000e+05
    3.3299860079e-03    1.0120000000e+05
    3.3399069216e-03    1.0120000000e+05
    3.3497498371e-03    1.0120000000e+05
    3.3598293085e-03    1.0120000000e+05
    3.3698265906e-03    1.0120000000e+05
    3.3797421493e-03    1.0120000000e+05
    3.3898821566e-03    1.0120000000e+05
    3.3999355510e-03    1.0120000000e+05
    3.4099023324e-03    1.0120000000e+05
    3.4197829664e-03    1.0120000000e+05
    3.4298731480e-03    1.0120000000e+05
    3.4398727585e-03    1.0120000000e+05
    3.4497813322e-03    1.0120000000e+05
    3.4598864149e-03    1.0120000000e+05
    3.4698951058e-03    1.0120000000e+05
    3.4798078705e-03    1.0120000000e+05
    3.4899029415e-03    1.0120000000e+05
    3.4998964984e-03    1.0120000000e+05
    3.5097880755e-03    1.0120000000e+05
    3.5198479891e-03    1.0120000000e+05
    3.5297991708e-03    1.0120000000e+05
    3.5399063490e-03    1.0120000000e+05
    3.5498987418e-03    1.0120000000e+05
    3.5597754177e-03    1.0120000000e+05
    3.5697917920e-03    1.0120000000e+05
    3.5799371544e-03    1.0120000000e+05
    3.5899523646e-03    1.0120000000e+05
    3.5998362582e-03    1.0120000000e+05
    3.6098300479e-03    1.0120000000e+05
    3.6199225578e-03    1.0120000000e+05
    3.6298658233e-03    1.0120000000e+05
    3.6398903467e-03    1.0120000000e+05
    3.6499823909e-03    1.0120000000e+05
    3.6599047016e-03    1.0120000000e+05
    3.6698740441e-03    1.0120000000e+05
    3.6798750516e-03    1.0120000000e+05
    3.6898914259e-03    1.0120000000e+05
    3.6999052390e-03    1.0120000000e+05
    3.7098969333e-03    1.0120000000e+05
    3.7198457867e-03    1.0120000000e+05
    3.7299192045e-03    1.0120000000e+05
    3.7398890126e-03    1.0120000000e+05
    3.7499042228e-03    1.0120000000e+05
    3.7599098869e-03    1.0120000000e+05
    3.7698426750e-03    1.0120000000e+05
    3.7799389102e-03    1.0120000000e+05
    3.7899001036e-03    1.0120000000e+05
    3.7999630440e-03    1.0120000000e+05
    3.8099947851e-03    1.0120000000e+05
    3.8199734408e-03    1.0120000000e+05
    3.8299588487e-03    1.0120000000e+05
    3.8399540354e-03    1.0120000000e+05
    3.8499657530e-03    1.0120000000e+05
    3.8599607069e-03    1.0120000000e+05
    3.8699628785e-03    1.0120000000e+05
    3.8798961323e-03    1.0120000000e+05
    3.8899073843e-03    1.0120000000e+05
    3.8999414537e-03    1.0120000000e+05
    3.9099147543e-03    1.0120000000e+05
    3.9198254235e-03    1.0120000000e+05
    3.9299083874e-03    1.0120000000e+05
    3.9399615489e-03    1.0120000000e+05
    3.9499416016e-03    1.0120000000e+05
    3.9598322473e-03    1.0120000000e+05
    3.9698611945e-03    1.0120000000e+05
    3.9799828082e-03    1.0120000000e+05
    3.9899968542e-03    1.0120000000e+05
    3.9999242872e-03    1.0120000000e+05
    4.0099401958e-03    1.0120000000e+05
    4.0198336355e-03    1.0120000000e+05
    4.0299803950e-03    1.0120000000e+05
    4.0398202837e-03    1.0120000000e+05
    4.0499251336e-03    1.0120000000e+05
    4.0598982014e-03    1.0120000000e+05
    4.0699224919e-03    1.0120000000e+05
    4.0798187256e-03    1.0120000000e+05
    4.0899459273e-03    1.0120000000e+05
    4.0999464691e-03    1.0120000000e+05
    4.1099810041e-03    1.0120000000e+05
    4.1198888794e-03    1.0120000000e+05
    4.1298177093e-03    1.0120000000e+05
    4.1398177855e-03    1.0120000000e+05
    4.1498411447e-03    1.0120000000e+05
    4.1599273682e-03    1.0120000000e+05
    4.1698399000e-03    1.0120000000e+05
    4.1799992323e-03    1.0120000000e+05
    4.1897986084e-03    1.0120000000e+05
    4.1998233646e-03    1.0120000000e+05
    4.2099161074e-03    1.0120000000e+05
    4.2198006995e-03    1.0120000000e+05
    4.2299716733e-03    1.0120000000e+05
    4.2399358936e-03    1.0120000000e+05
    4.2499466799e-03    1.0120000000e+05
    4.2597847059e-03    1.0120000000e+05
    4.2698513716e-03    1.0120000000e+05
    4.2799981311e-03    1.0120000000e+05
    4.2899069376e-03    1.0120000000e+05
    4.2999037541e-03    1.0120000000e+05
    4.3098842725e-03    1.0120000000e+05
    4.3199118227e-03    1.0120000000e+05
    4.3297894299e-03    1.0120000000e+05
    4.3398393318e-03    1.0120000000e+05
    4.3497923762e-03    1.0120000000e+05
    4.3599070050e-03    1.0120000000e+05
    4.3698814698e-03    1.0120000000e+05
    4.3798885308e-03    1.0120000000e+05
    4.3898792937e-03    1.0120000000e+05
    4.3999650516e-03    1.0120000000e+05
    4.4098068029e-03    1.0120000000e+05
    4.4199284166e-03    1.0120000000e+05
    4.4298497960e-03    1.0120000000e+05
    4.4397911988e-03    1.0120000000e+05
    4.4497852214e-03    1.0120000000e+05
    4.4597857632e-03    1.0120000000e+05
    4.4698179699e-03    1.0120000000e+05
    4.4798892923e-03    1.0120000000e+05
    4.4899787754e-03    1.0120000000e+05
    4.4998647645e-03    1.0120000000e+05
    4.5097707771e-03    1.0120000000e+05
    4.5199431479e-03    1.0120000000e+05
    4.5299059711e-03    1.0120000000e+05
    4.5398836955e-03    1.0120000000e+05
    4.5498856343e-03    1.0120000000e+05
    4.5599122532e-03    1.0120000000e+05
    4.5699570328e-03    1.0120000000e+05
    4.5797904022e-03    1.0120000000e+05
    4.5898742974e-03    1.0120000000e+05
    4.5999726281e-03    1.0120000000e+05
    4.6098600142e-03    1.0120000000e+05
    4.6197650954e-03    1.0120000000e+05
    4.6299207024e-03    1.0120000000e+05
    4.6398532577e-03    1.0120000000e+05
    4.6498007141e-03    1.0120000000e+05
    4.6597616747e-03    1.0120000000e+05
    4.6699740924e-03    1.0120000000e+05
    4.6799634583e-03    1.0120000000e+05
    4.6899626032e-03    1.0120000000e+05
    4.6999715269e-03    1.0120000000e+05
    4.7099888325e-03    1.0120000000e+05
    4.7197788954e-03    1.0120000000e+05
    4.7298148274e-03    1.0120000000e+05
    4.7398568131e-03    1.0120000000e+05
    4.7499020584e-03    1.0120000000e+05
    4.7599505633e-03    1.0120000000e+05
    4.7697625123e-03    1.0120000000e+05
    4.7798142768e-03    1.0120000000e+05
    4.7898660414e-03    1.0120000000e+05
    4.7999182716e-03    1.0120000000e+05
    4.8099709675e-03    1.0120000000e+05
    4.8197843134e-03    1.0120000000e+05
    4.8298370093e-03    1.0120000000e+05
    4.8398897052e-03    1.0120000000e+05
    4.8499419354e-03    1.0120000000e+05
    4.8599941656e-03    1.0120000000e+05
    4.8698065802e-03    1.0120000000e+05
    4.8798578791e-03    1.0120000000e+05
    4.8899091780e-03    1.0120000000e+05
    4.8999595456e-03    1.0120000000e+05
    4.9097705632e-03    1.0120000000e+05
    4.9198199995e-03    1.0120000000e+05
    4.9298689701e-03    1.0120000000e+05
    4.9399170093e-03    1.0120000000e+05
    4.9499650486e-03    1.0120000000e+05
    4.9597728066e-03    1.0120000000e+05
    4.9698194489e-03    1.0120000000e+05
    4.9798646942e-03    1.0120000000e+05
    4.9899099395e-03    1.0120000000e+05
    4.9999533221e-03    1.0120000000e+05
    5.0099957734e-03    1.0120000000e+05
    5.0197984092e-03    1.0120000000e+05
    5.0298385322e-03    1.0120000000e+05
    5.0398791209e-03    1.0120000000e+05
    5.0499187782e-03    1.0120000000e+05
    5.0599616952e-03    1.0120000000e+05
    5.0697680563e-03    1.0120000000e+05
    5.0798184238e-03    1.0120000000e+05
    5.0898757763e-03    1.0120000000e+05
    5.0999396481e-03    1.0120000000e+05
    5.1097702235e-03    1.0120000000e+05
    5.1198536530e-03    1.0120000000e+05
    5.1299445331e-03    1.0120000000e+05
    5.1398007199e-03    1.0120000000e+05
    5.1499074325e-03    1.0120000000e+05
    5.1597831771e-03    1.0120000000e+05
    5.1699043252e-03    1.0120000000e+05
    5.1797926426e-03    1.0120000000e+05
    5.1899333484e-03    1.0120000000e+05
    5.1998398267e-03    1.0120000000e+05
    5.2099945024e-03    1.0120000000e+05
    5.2199158818e-03    1.0120000000e+05
    5.2298489027e-03    1.0120000000e+05
    5.2397828549e-03    1.0120000000e+05
    5.2499682643e-03    1.0120000000e+05
    5.2599203773e-03    1.0120000000e+05
    5.2698794752e-03    1.0120000000e+05
    5.2798399702e-03    1.0120000000e+05
    5.2898144349e-03    1.0120000000e+05
    5.2997968160e-03    1.0120000000e+05
    5.3097819909e-03    1.0120000000e+05
    5.3197699599e-03    1.0120000000e+05
    5.3297742270e-03    1.0120000000e+05
    5.3397812881e-03    1.0120000000e+05
    5.3497878835e-03    1.0120000000e+05
    5.3598061204e-03    1.0120000000e+05
    5.3698332049e-03    1.0120000000e+05
    5.3798621520e-03    1.0120000000e+05
    5.3898924962e-03    1.0120000000e+05
    5.3999456577e-03    1.0120000000e+05
    5.4099904373e-03    1.0120000000e+05
    5.4197991267e-03    1.0120000000e+05
    5.4298550822e-03    1.0120000000e+05
    5.4399301298e-03    1.0120000000e+05
    5.4499888793e-03    1.0120000000e+05
    5.4598250426e-03    1.0120000000e+05
    5.4699108005e-03    1.0120000000e+05
    5.4797581397e-03    1.0120000000e+05
    5.4898355156e-03    1.0120000000e+05
    5.4999459535e-03    1.0120000000e+05
    5.5098114535e-03    1.0120000000e+05
    5.5199218914e-03    1.0120000000e+05
    5.5297780782e-03    1.0120000000e+05
    5.5399043486e-03    1.0120000000e+05
    5.5497912690e-03    1.0120000000e+05
    5.5599212646e-03    1.0120000000e+05
    5.5698035285e-03    1.0120000000e+05
    5.5799479596e-03    1.0120000000e+05
    5.5898525752e-03    1.0120000000e+05
    5.5997571908e-03    1.0120000000e+05
    5.6099160574e-03    1.0120000000e+05
    5.6198365055e-03    1.0120000000e+05
    5.6297616102e-03    1.0120000000e+05
    5.6399391033e-03    1.0120000000e+05
    5.6498693302e-03    1.0120000000e+05
    5.6598070078e-03    1.0120000000e+05
    5.6697549298e-03    1.0120000000e+05
    5.6799557060e-03    1.0120000000e+05
    5.6899068877e-03    1.0120000000e+05
    5.6998594664e-03    1.0120000000e+05
    5.7098274119e-03    1.0120000000e+05
    5.7198014110e-03    1.0120000000e+05
    5.7297758758e-03    1.0120000000e+05
    5.7399924845e-03    1.0120000000e+05
    5.7499748655e-03    1.0120000000e+05
    5.7599656284e-03    1.0120000000e+05
    5.7699638419e-03    1.0120000000e+05
    5.7799569331e-03    1.0120000000e+05
    5.7899542153e-03    1.0120000000e+05
    5.7999570854e-03    1.0120000000e+05
    5.8099725284e-03    1.0120000000e+05
    5.8199861087e-03    1.0120000000e+05
    5.8297519572e-03    1.0120000000e+05
    5.8397692628e-03    1.0120000000e+05
    5.8497982100e-03    1.0120000000e+05
    5.8598308824e-03    1.0120000000e+05
    5.8698654175e-03    1.0120000000e+05
    5.8798966929e-03    1.0120000000e+05
    5.8899368159e-03    1.0120000000e+05
    5.8999899775e-03    1.0120000000e+05
    5.9097995982e-03    1.0120000000e+05
    5.9198616073e-03    1.0120000000e+05
    5.9299189597e-03    1.0120000000e+05
    5.9399702586e-03    1.0120000000e+05
    5.9497803450e-03    1.0120000000e+05
    5.9598544613e-03    1.0120000000e+05
    5.9699327685e-03    1.0120000000e+05
    5.9797568247e-03    1.0120000000e+05
    5.9898300096e-03    1.0120000000e+05
    5.9999013320e-03    1.0120000000e+05
    6.0099712573e-03    1.0120000000e+05
    6.0197901912e-03    1.0120000000e+05
    6.0298698954e-03    1.0120000000e+05
    6.0399570502e-03    1.0120000000e+05
    6.0497899540e-03    1.0120000000e+05
    6.0598724522e-03    1.0120000000e+05
    6.0699535534e-03    1.0120000000e+05
    6.0797818005e-03    1.0120000000e+05
    6.0898619704e-03    1.0120000000e+05
    6.0999416746e-03    1.0120000000e+05
    6.1097699217e-03    1.0120000000e+05
    6.1198510230e-03    1.0120000000e+05
    6.1299335212e-03    1.0120000000e+05
    6.1397659592e-03    1.0120000000e+05
    6.1498526484e-03    1.0120000000e+05
    6.1599388719e-03    1.0120000000e+05
    6.1697722413e-03    1.0120000000e+05
    6.1798561364e-03    1.0120000000e+05
    6.1899395660e-03    1.0120000000e+05
    6.1997701414e-03    1.0120000000e+05
    6.2098531052e-03    1.0120000000e+05
    6.2199360691e-03    1.0120000000e+05
    6.2297666445e-03    1.0120000000e+05
    6.2398486771e-03    1.0120000000e+05
    6.2499307096e-03    1.0120000000e+05
    6.2597603537e-03    1.0120000000e+05
    6.2698419206e-03    1.0120000000e+05
    6.2799230218e-03    1.0120000000e+05
    6.2897522002e-03    1.0120000000e+05
    6.2998333015e-03    1.0120000000e+05
    6.3099139370e-03    1.0120000000e+05
    6.3199945726e-03    1.0120000000e+05
    6.3298237510e-03    1.0120000000e+05
    6.3399062492e-03    1.0120000000e+05
    6.3499887474e-03    1.0120000000e+05
    6.3598183915e-03    1.0120000000e+05
    6.3698990270e-03    1.0120000000e+05
    6.3799787313e-03    1.0120000000e+05
    6.3898051158e-03    1.0120000000e+05
    6.3998834230e-03    1.0120000000e+05
    6.4099612646e-03    1.0120000000e+05
    6.4197881147e-03    1.0120000000e+05
    6.4298678190e-03    1.0120000000e+05
    6.4399493858e-03    1.0120000000e+05
    6.4497790299e-03    1.0120000000e+05
    6.4598610625e-03    1.0120000000e+05
    6.4699430950e-03    1.0120000000e+05
    6.4797722735e-03    1.0120000000e+05
    6.4898524433e-03    1.0120000000e+05
    6.4999312162e-03    1.0120000000e+05
    6.5097576007e-03    1.0120000000e+05
    6.5198345110e-03    1.0120000000e+05
    6.5299137495e-03    1.0120000000e+05
    6.5399990417e-03    1.0120000000e+05
    6.5498333424e-03    1.0120000000e+05
    6.5599181689e-03    1.0120000000e+05
    6.5697501414e-03    1.0120000000e+05
    6.5798335709e-03    1.0120000000e+05
    6.5899160691e-03    1.0120000000e+05
    6.5997503698e-03    1.0120000000e+05
    6.6098398529e-03    1.0120000000e+05
    6.6199284047e-03    1.0120000000e+05
    6.6297636367e-03    1.0120000000e+05
    6.6398503259e-03    1.0120000000e+05
    6.6499360837e-03    1.0120000000e+05
    6.6597727127e-03    1.0120000000e+05
    6.6698649898e-03    1.0120000000e+05
    6.6799563356e-03    1.0120000000e+05
    6.6897938959e-03    1.0120000000e+05
    6.6998833790e-03    1.0120000000e+05
    6.7099737935e-03    1.0120000000e+05
    6.7198164761e-03    1.0120000000e+05
    6.7299106158e-03    1.0120000000e+05
    6.7397519015e-03    1.0120000000e+05
    6.7498446442e-03    1.0120000000e+05
    6.7599378526e-03    1.0120000000e+05
    6.7697823979e-03    1.0120000000e+05
    6.7798793316e-03    1.0120000000e+05
    6.7899753340e-03    1.0120000000e+05
    6.7998184822e-03    1.0120000000e+05
    6.8099154159e-03    1.0120000000e+05
    6.8197618239e-03    1.0120000000e+05
    6.8298596889e-03    1.0120000000e+05
    6.8399575539e-03    1.0120000000e+05
    6.8498025648e-03    1.0120000000e+05
    6.8599022925e-03    1.0120000000e+05
    6.8697487004e-03    1.0120000000e+05
    6.8798474967e-03    1.0120000000e+05
    6.8899458274e-03    1.0120000000e+05
    6.8997936323e-03    1.0120000000e+05
    6.9098938257e-03    1.0120000000e+05
    6.9199935533e-03    1.0120000000e+05
    6.9298399612e-03    1.0120000000e+05
    6.9399406202e-03    1.0120000000e+05
    6.9497884251e-03    1.0120000000e+05
    6.9598886184e-03    1.0120000000e+05
    6.9699883461e-03    1.0120000000e+05
    6.9798366167e-03    1.0120000000e+05
    6.9899368100e-03    1.0120000000e+05
    6.9997841492e-03    1.0120000000e+05
    7.0098838769e-03    1.0120000000e+05
    7.0199840702e-03    1.0120000000e+05
    7.0298309438e-03    1.0120000000e+05
    7.0399302058e-03    1.0120000000e+05
    7.0497770794e-03    1.0120000000e+05
    7.0598768070e-03    1.0120000000e+05
    7.0699760690e-03    1.0120000000e+05
    7.0798224770e-03    1.0120000000e+05
    7.0899217390e-03    1.0120000000e+05
    7.0997681469e-03    1.0120000000e+05
    7.1098664775e-03    1.0120000000e+05
    7.1199648082e-03    1.0120000000e+05
    7.1298107505e-03    1.0120000000e+05
    7.1399081498e-03    1.0120000000e+05
    7.1497536264e-03    1.0120000000e+05
    7.1598524228e-03    1.0120000000e+05
    7.1699516848e-03    1.0120000000e+05
    7.1797976270e-03    1.0120000000e+05
    7.1898959577e-03    1.0120000000e+05
    7.1999933571e-03    1.0120000000e+05
    7.2098379023e-03    1.0120000000e+05
    7.2199343704e-03    1.0120000000e+05
    7.2297793813e-03    1.0120000000e+05
    7.2398777120e-03    1.0120000000e+05
    7.2499779053e-03    1.0120000000e+05
    7.2598252445e-03    1.0120000000e+05
    7.2699245065e-03    1.0120000000e+05
    7.2797709145e-03    1.0120000000e+05
    7.2898697108e-03    1.0120000000e+05
    7.2999680415e-03    1.0120000000e+05
    7.3098139837e-03    1.0120000000e+05
    7.3199123144e-03    1.0120000000e+05
    7.3297582567e-03    1.0120000000e+05
    7.3398561217e-03    1.0120000000e+05
    7.3499539867e-03    1.0120000000e+05
    7.3597989976e-03    1.0120000000e+05
    7.3698963970e-03    1.0120000000e+05
    7.3799928650e-03    1.0120000000e+05
    7.3898369446e-03    1.0120000000e+05
    7.3999334127e-03    1.0120000000e+05
    7.4097770266e-03    1.0120000000e+05
    7.4198734947e-03    1.0120000000e+05
    7.4299704283e-03    1.0120000000e+05
    7.4398191646e-03    1.0120000000e+05
    7.4499235488e-03    1.0120000000e+05
    7.4597755447e-03    1.0120000000e+05
    7.4698794633e-03    1.0120000000e+05
    7.4799833819e-03    1.0120000000e+05
    7.4898335151e-03    1.0120000000e+05
    7.4999360368e-03    1.0120000000e+05
    7.5097857043e-03    1.0120000000e+05
    7.5198877603e-03    1.0120000000e+05
    7.5299926102e-03    1.0120000000e+05
    7.5398446061e-03    1.0120000000e+05
    7.5499494560e-03    1.0120000000e+05
    7.5598005205e-03    1.0120000000e+05
    7.5699039735e-03    1.0120000000e+05
    7.5797545724e-03    1.0120000000e+05
    7.5898580253e-03    1.0120000000e+05
    7.5999614783e-03    1.0120000000e+05
    7.6098125428e-03    1.0120000000e+05
    7.6199164614e-03    1.0120000000e+05
    7.6297679916e-03    1.0120000000e+05
    7.6398728415e-03    1.0120000000e+05
    7.6499790885e-03    1.0120000000e+05
    7.6598338783e-03    1.0120000000e+05
    7.6699433848e-03    1.0120000000e+05
    7.6798046939e-03    1.0120000000e+05
    7.6899258420e-03    1.0120000000e+05
    7.6997959986e-03    1.0120000000e+05
    7.7099222690e-03    1.0120000000e+05
    7.7198049985e-03    1.0120000000e+05
    7.7299531549e-03    1.0120000000e+05
    7.7398545109e-03    1.0120000000e+05
    7.7497567981e-03    1.0120000000e+05
    7.7599203214e-03    1.0120000000e+05
    7.7698430978e-03    1.0120000000e+05
    7.7797756530e-03    1.0120000000e+05
    7.7899657190e-03    1.0120000000e+05
    7.7999047935e-03    1.0120000000e+05
    7.8098527156e-03    1.0120000000e+05
    7.8198136762e-03    1.0120000000e+05
    7.8297834843e-03    1.0120000000e+05
    7.8397532925e-03    1.0120000000e+05
    7.8499857336e-03    1.0120000000e+05
    7.8599732369e-03    1.0120000000e+05
    7.8699737787e-03    1.0120000000e+05
    7.8799799085e-03    1.0120000000e+05
    7.8899813816e-03    1.0120000000e+05
    7.8999903053e-03    1.0120000000e+05
    7.9097570851e-03    1.0120000000e+05
    7.9197930172e-03    1.0120000000e+05
    7.9298308119e-03    1.0120000000e+05
    7.9398648813e-03    1.0120000000e+05
    7.9499101266e-03    1.0120000000e+05
    7.9599702731e-03    1.0120000000e+05
    7.9697817564e-03    1.0120000000e+05
    7.9798484221e-03    1.0120000000e+05
    7.9899122939e-03    1.0120000000e+05
    7.9999901354e-03    1.0120000000e+05
    8.0098249018e-03    1.0120000000e+05
    8.0199223012e-03    1.0120000000e+05
    8.0297598615e-03    1.0120000000e+05
    8.0398609862e-03    1.0120000000e+05
    8.0499695614e-03    1.0120000000e+05
    8.0598304048e-03    1.0120000000e+05
    8.0699538812e-03    1.0120000000e+05
    8.0798147246e-03    1.0120000000e+05
    8.0899456516e-03    1.0120000000e+05
    8.0998288468e-03    1.0120000000e+05
    8.1099737436e-03    1.0120000000e+05
    8.1198625267e-03    1.0120000000e+05
    8.1297568977e-03    1.0120000000e+05
    8.1399157643e-03    1.0120000000e+05
    8.1498268992e-03    1.0120000000e+05
    8.1597408280e-03    1.0120000000e+05
    8.1699145958e-03    1.0120000000e+05
    8.1798341125e-03    1.0120000000e+05
    8.1897648051e-03    1.0120000000e+05
    8.1999609247e-03    1.0120000000e+05
    8.2098990679e-03    1.0120000000e+05
    8.2198427990e-03    1.0120000000e+05
    8.2297893241e-03    1.0120000000e+05
    8.2397432998e-03    1.0120000000e+05
    8.2499692217e-03    1.0120000000e+05
    8.2599259913e-03    1.0120000000e+05
    8.2698911428e-03    1.0120000000e+05
    8.2798674703e-03    1.0120000000e+05
    8.2898447290e-03    1.0120000000e+05
    8.2998313010e-03    1.0120000000e+05
    8.3098225296e-03    1.0120000000e+05
    8.3198081702e-03    1.0120000000e+05
    8.3298059180e-03    1.0120000000e+05
    8.3398139104e-03    1.0120000000e+05
    8.3498228341e-03    1.0120000000e+05
    8.3598382771e-03    1.0120000000e+05
    8.3698565140e-03    1.0120000000e+05
    8.3798747510e-03    1.0120000000e+05
    8.3899004385e-03    1.0120000000e+05
    8.3999345079e-03    1.0120000000e+05
    8.4099676460e-03    1.0120000781e+05
    8.4197437391e-03    1.0179585156e+05
    8.4297908470e-03    2.0934542188e+05
    8.4398332983e-03    2.0932542188e+05
    8.4498832002e-03    2.0872617188e+05
    8.4599461406e-03    2.0816554688e+05
    8.4697399288e-03    2.0762062500e+05
    8.4798065946e-03    2.0706270312e+05
    8.4898807108e-03    2.0650731250e+05
    8.4999455139e-03    2.0595632812e+05
    8.5097569972e-03    2.0542248438e+05
    8.5198460147e-03    2.0487573438e+05
    8.5299303755e-03    2.0433170312e+05
    8.5397567600e-03    2.0380489062e+05
    8.5498578846e-03    2.0326679688e+05
    8.5599496961e-03    2.0273189062e+05
    8.5697872564e-03    2.0221267188e+05
    8.5799014196e-03    2.0168160938e+05
    8.5897436365e-03    2.0116817188e+05
    8.5998596624e-03    2.0064339062e+05
    8.6099840701e-03    2.0012043750e+05
    8.6198365316e-03    1.9961404688e+05
    8.6299618706e-03    1.9909667188e+05
    8.6398348212e-03    1.9859526562e+05
    8.6499685422e-03    1.9808318750e+05
    8.6598424241e-03    1.9758648438e+05
    8.6699947715e-03    1.9707851562e+05
    8.6798733100e-03    1.9658718750e+05
    8.6897537112e-03    1.9609835938e+05
    8.6999135092e-03    1.9559804688e+05
    8.7098004296e-03    1.9511354688e+05
    8.7199583650e-03    1.9461843750e+05
    8.7298648432e-03    1.9413817188e+05
    8.7397657335e-03    1.9366056250e+05
    8.7499376386e-03    1.9317267188e+05
    8.7598552927e-03    1.9269970312e+05
    8.7697682902e-03    1.9222895312e+05
    8.7799485773e-03    1.9174729688e+05
    8.7898774073e-03    1.9128054688e+05
    8.7998053059e-03    1.9081735938e+05
    8.8099995628e-03    1.9034429688e+05
    8.8199358433e-03    1.8988418750e+05
    8.8298674673e-03    1.8942581250e+05
    8.8397990912e-03    1.8897076562e+05
    8.8497446850e-03    1.8851857812e+05
    8.8599622250e-03    1.8805589062e+05
    8.8699115440e-03    1.8760657812e+05
    8.8798683137e-03    1.8715939062e+05
    8.8898232207e-03    1.8671557812e+05
    8.8997771963e-03    1.8627420312e+05
    8.9097432792e-03    1.8583362500e+05
    8.9199822396e-03    1.8538268750e+05
    8.9299511164e-03    1.8494650000e+05
    8.9399255812e-03    1.8451293750e+05
    8.9499028400e-03    1.8408129688e+05
    8.9598782361e-03    1.8365139062e+05
    8.9698601514e-03    1.8322314062e+05
    8.9798467234e-03    1.8279710938e+05
    8.9898379520e-03    1.8237331250e+05
    8.9998347685e-03    1.8195131250e+05
    9.0098353103e-03    1.8153107812e+05
    9.0198311955e-03    1.8111304688e+05
    9.0298326686e-03    1.8069706250e+05
    9.0398387983e-03    1.8028298438e+05
    9.0498477221e-03    1.7987079688e+05
    9.0598631650e-03    1.7946029688e+05
    9.0698851272e-03    1.7905168750e+05
    9.0799080208e-03    1.7864517188e+05
    9.0899309143e-03    1.7824057812e+05
    9.0999566019e-03    1.7783781250e+05
    9.1099813581e-03    1.7743704688e+05
    9.1197406873e-03    1.7704882812e+05
    9.1297775507e-03    1.7665148438e+05
    9.1398162767e-03    1.7625592188e+05
    9.1498605907e-03    1.7586212500e+05
    9.1599086300e-03    1.7547017188e+05
    9.1699585319e-03    1.7508010938e+05
    9.1797374189e-03    1.7470229688e+05
    9.1897919774e-03    1.7431564062e+05
    9.1998502612e-03    1.7393087500e+05
    9.2099122703e-03    1.7354806250e+05
    9.2199789360e-03    1.7316689062e+05
    9.2297736555e-03    1.7279745312e+05
    9.2398440465e-03    1.7241931250e+05
    9.2499172315e-03    1.7204314062e+05
    9.2599932104e-03    1.7166907812e+05
    9.2697991058e-03    1.7130671875e+05
    9.2798834667e-03    1.7093553125e+05
    9.2899715528e-03    1.7056581250e+05
    9.2997886240e-03    1.7020801562e+05
    9.3098822981e-03    1.6984207812e+05
    9.3199806288e-03    1.6947753125e+05
    9.3298088759e-03    1.6912432812e+05
    9.3399118632e-03    1.6876318750e+05
    9.3497438356e-03    1.6841350000e+05
    9.3598542735e-03    1.6805537500e+05
    9.3699684367e-03    1.6769860938e+05
    9.3798125163e-03    1.6735317188e+05
    9.3899331987e-03    1.6700009375e+05
    9.3997828662e-03    1.6665803125e+05
    9.4099100679e-03    1.6630762500e+05
    9.4197662547e-03    1.6596814062e+05
    9.4298981130e-03    1.6562101562e+05
    9.4397608191e-03    1.6528485938e+05
    9.4499029219e-03    1.6494070312e+05
    9.4597740099e-03    1.6460721875e+05
    9.4699207693e-03    1.6426604688e+05
    9.4797955826e-03    1.6393560938e+05
    9.4899497926e-03    1.6359740625e+05
    9.4998329878e-03    1.6326973438e+05
    9.5099927858e-03    1.6293451562e+05
    9.5198815688e-03    1.6260978125e+05
    9.5297759399e-03    1.6228632812e+05
    9.5399506390e-03    1.6195526562e+05
    9.5498505980e-03    1.6163464062e+05
    9.5597524196e-03    1.6131546875e+05
    9.5699327067e-03    1.6098878125e+05
    9.5798438415e-03    1.6067218750e+05
    9.5897587016e-03    1.6035692188e+05
    9.5999520272e-03    1.6003432812e+05
    9.6098752692e-03    1.5972171875e+05
    9.6198022366e-03    1.5941035938e+05
    9.6297310665e-03    1.5910045312e+05
    9.6399355680e-03    1.5878353125e+05
    9.6498699859e-03    1.5847640625e+05
    9.6598109230e-03    1.5817028125e+05
    9.6697546542e-03    1.5786531250e+05
    9.6799759194e-03    1.5755340625e+05
    9.6899280325e-03    1.5725139062e+05
    9.6998829395e-03    1.5695065625e+05
    9.7098415717e-03    1.5665103125e+05
    9.7198020667e-03    1.5635260938e+05
    9.7297634929e-03    1.5605551562e+05
    9.7397305071e-03    1.5575962500e+05
    9.7499806434e-03    1.5545662500e+05
    9.7599588335e-03    1.5516303125e+05
    9.7699416801e-03    1.5487078125e+05
    9.7799329087e-03    1.5457973438e+05
    9.7899287939e-03    1.5428964062e+05
    9.7999274731e-03    1.5400057812e+05
    9.8099233583e-03    1.5371301562e+05
    9.8199192435e-03    1.5342696875e+05
    9.8299188539e-03    1.5314206250e+05
    9.8399166018e-03    1.5285823438e+05
    9.8499180749e-03    1.5257551562e+05
    9.8599269986e-03    1.5229401562e+05
    9.8699405789e-03    1.5201373438e+05
    9.8799550906e-03    1.5173454688e+05
    9.8899668083e-03    1.5145665625e+05
    9.8999757320e-03    1.5118012500e+05
    9.9099939689e-03    1.5090465625e+05
    9.9197449163e-03    1.5063764062e+05
    9.9297733977e-03    1.5036414062e+05
    9.9398083985e-03    1.5009176562e+05
    9.9498461932e-03    1.4982051562e+05
    9.9598821253e-03    1.4955048438e+05
    9.9699189886e-03    1.4928160938e+05
    9.9799521267e-03    1.4901406250e+05
    9.9899908528e-03    1.4874754688e+05
    9.9997632205e-03    1.4848918750e+05
    1.0009816848e-02    1.4822448438e+05
    1.0019865818e-02    1.4796109375e+05
    1.0029920377e-02    1.4769876562e+05
    1.0039980523e-02    1.4743746875e+05
    1.0049761273e-02    1.4718454688e+05
    1.0059830733e-02    1.4692525000e+05
    1.0069914162e-02    1.4666670312e+05
    1.0079728439e-02    1.4641609375e+05
    1.0089827701e-02    1.4615928125e+05
    1.0099926963e-02    1.4590371875e+05
    1.0109743103e-02    1.4565650000e+05
    1.0119839571e-02    1.4540326562e+05
    1.0129931383e-02    1.4515110938e+05
    1.0139742866e-02    1.4490704688e+05
    1.0149838403e-02    1.4465704688e+05
    1.0159941390e-02    1.4440789062e+05
    1.0169768706e-02    1.4416645312e+05
    1.0179877281e-02    1.4391918750e+05
    1.0189984925e-02    1.4367321875e+05
    1.0199810378e-02    1.4343517188e+05
    1.0209916160e-02    1.4319121875e+05
    1.0219739750e-02    1.4295500000e+05
    1.0229842737e-02    1.4271323438e+05
    1.0239949450e-02    1.4247248438e+05
    1.0249776766e-02    1.4223928125e+05
    1.0259885341e-02    1.4200032812e+05
    1.0269992054e-02    1.4176253125e+05
    1.0279816575e-02    1.4153243750e+05
    1.0289921425e-02    1.4129671875e+05
    1.0299749672e-02    1.4106835938e+05
    1.0309861042e-02    1.4083439062e+05
    1.0319973342e-02    1.4060150000e+05
    1.0329804383e-02    1.4037603125e+05
    1.0339918546e-02    1.4014501562e+05
    1.0349747725e-02    1.3992140625e+05
    1.0359858163e-02    1.3969239062e+05
    1.0369971395e-02    1.3946431250e+05
    1.0379812680e-02    1.3924328125e+05
    1.0389943607e-02    1.3901668750e+05
    1.0399794206e-02    1.3879728125e+05
    1.0409923270e-02    1.3857260938e+05
    1.0419772938e-02    1.3835506250e+05
    1.0429903865e-02    1.3813217188e+05
    1.0439751670e-02    1.3791640625e+05
    1.0449890047e-02    1.3769529688e+05
    1.0459755547e-02    1.3748103125e+05
    1.0469908826e-02    1.3726139062e+05
    1.0479784571e-02    1.3704857812e+05
    1.0489940643e-02    1.3683060938e+05
    1.0499812663e-02    1.3661968750e+05
    1.0509967804e-02    1.3640367188e+05
    1.0519840755e-02    1.3619450000e+05
    1.0529993102e-02    1.3598028125e+05
    1.0539862327e-02    1.3577289062e+05
    1.0549739935e-02    1.3556615625e+05
    1.0559901595e-02    1.3535425000e+05
    1.0569784790e-02    1.3514903125e+05
    1.0579952039e-02    1.3493890625e+05
    1.0589836165e-02    1.3473556250e+05
    1.0599718429e-02    1.3453296875e+05
    1.0609881952e-02    1.3432535938e+05
    1.0619761422e-02    1.3412440625e+05
    1.0629923083e-02    1.3391867188e+05
    1.0639800690e-02    1.3371943750e+05
    1.0649960488e-02    1.3351528125e+05
    1.0659838095e-02    1.3331762500e+05
    1.0669996962e-02    1.3311528125e+05
    1.0679873638e-02    1.3291935938e+05
    1.0689749382e-02    1.3272410938e+05
    1.0699907318e-02    1.3252409375e+05
    1.0709783062e-02    1.3233050000e+05
    1.0719940998e-02    1.3213218750e+05
    1.0729816742e-02    1.3194012500e+05
    1.0739973746e-02    1.3174335938e+05
    1.0749848559e-02    1.3155287500e+05
    1.0759721510e-02    1.3136321875e+05
    1.0769876651e-02    1.3116889062e+05
    1.0779749602e-02    1.3098071094e+05
    1.0789904743e-02    1.3078794531e+05
    1.0799777694e-02    1.3060128906e+05
    1.0809932835e-02    1.3041003125e+05
    1.0819805786e-02    1.3022481250e+05
    1.0829960927e-02    1.3003510156e+05
    1.0839834809e-02    1.2985144531e+05
    1.0849991813e-02    1.2966325781e+05
    1.0859872214e-02    1.2948085156e+05
    1.0869756341e-02    1.2929908594e+05
    1.0879923590e-02    1.2911287500e+05
    1.0889812373e-02    1.2893253906e+05
    1.0899987072e-02    1.2874777344e+05
    1.0909877717e-02    1.2856882031e+05
    1.0919774882e-02    1.2839046875e+05
    1.0929963551e-02    1.2820758594e+05
    1.0939884931e-02    1.2803014844e+05
    1.0949813761e-02    1.2785322656e+05
    1.0959745385e-02    1.2767703125e+05
    1.0969963856e-02    1.2749657031e+05
    1.0979900137e-02    1.2732177344e+05
    1.0989834554e-02    1.2714757031e+05
    1.0999776423e-02    1.2697389844e+05
    1.1009726673e-02    1.2680082031e+05
    1.1019962840e-02    1.2662350781e+05
    1.1029914021e-02    1.2645172656e+05
    1.1039866135e-02    1.2628057031e+05
    1.1049820110e-02    1.2611013281e+05
    1.1059786193e-02    1.2594022656e+05
    1.1069777422e-02    1.2577047656e+05
    1.1079791933e-02    1.2560096094e+05
    1.1089827865e-02    1.2543177344e+05
    1.1099886149e-02    1.2526291406e+05
    1.1109969579e-02    1.2509428125e+05
    1.1119787581e-02    1.2493068750e+05
    1.1129915714e-02    1.2476258594e+05
    1.1139777489e-02    1.2459959375e+05
    1.1149956845e-02    1.2443197656e+05
    1.1159876361e-02    1.2426925781e+05
    1.1169828475e-02    1.2410660156e+05
    1.1179816909e-02    1.2394403906e+05
    1.1189838871e-02    1.2378152344e+05
    1.1199889705e-02    1.2361912500e+05
    1.1209961027e-02    1.2345703906e+05
    1.1219747365e-02    1.2330021094e+05
    1.1229836382e-02    1.2313916406e+05
    1.1239930987e-02    1.2297860156e+05
    1.1249730363e-02    1.2282331250e+05
    1.1259832419e-02    1.2266382031e+05
    1.1269953102e-02    1.2250469531e+05
    1.1279799975e-02    1.2235042969e+05
    1.1289975606e-02    1.2219162500e+05
    1.1299882084e-02    1.2203765625e+05
    1.1309812777e-02    1.2188396094e+05
    1.1319758371e-02    1.2173058594e+05
    1.1329710484e-02    1.2157758594e+05
    1.1339970864e-02    1.2142047656e+05
    1.1349942535e-02    1.2126846094e+05
    1.1359958909e-02    1.2111638281e+05
    1.1369754560e-02    1.2096808594e+05
    1.1379989795e-02    1.2081369531e+05
    1.1389770545e-02    1.2066686719e+05
    1.1399733834e-02    1.2051797656e+05
    1.1409896426e-02    1.2036662500e+05
    1.1419923045e-02    1.2021771094e+05
    1.1429797858e-02    1.2007166406e+05
    1.1439849623e-02    1.1992367969e+05
    1.1449720711e-02    1.1977889844e+05
    1.1459751986e-02    1.1963221094e+05
    1.1469941586e-02    1.1948375781e+05
    1.1479915120e-02    1.1933907031e+05
    1.1489653960e-02    1.1919832031e+05
    1.1499906890e-02    1.1905064844e+05
    1.1509913020e-02    1.1890705469e+05
    1.1519656517e-02    1.1876778125e+05
    1.1529915035e-02    1.1862172656e+05
    1.1539899744e-02    1.1848009375e+05
    1.1549595743e-02    1.1834302344e+05
    1.1559811421e-02    1.1819913281e+05
    1.1569728144e-02    1.1805997656e+05
    1.1579752900e-02    1.1791985156e+05
    1.1589883827e-02    1.1777871875e+05
    1.1599686928e-02    1.1764262500e+05
    1.1609586887e-02    1.1750571094e+05
    1.1619587429e-02    1.1736796094e+05
    1.1629686691e-02    1.1722939844e+05
    1.1639874429e-02    1.1709011719e+05
    1.1649692431e-02    1.1695641406e+05
    1.1659575626e-02    1.1682238281e+05
    1.1669977568e-02    1.1668196094e+05
    1.1679983698e-02    1.1654740625e+05
    1.1689576320e-02    1.1641893750e+05
    1.1699660681e-02    1.1628411719e+05
    1.1709782295e-02    1.1614908594e+05
    1.1719947681e-02    1.1601389844e+05
    1.1729687452e-02    1.1588469531e+05
    1.1739935726e-02    1.1574939844e+05
    1.1749757454e-02    1.1562019531e+05
    1.1759617366e-02    1.1549094531e+05
    1.1769996025e-02    1.1535564844e+05
    1.1779938824e-02    1.1522689844e+05
    1.1789919809e-02    1.1509837500e+05
    1.1799964122e-02    1.1496992969e+05
    1.1809553020e-02    1.1484777344e+05
    1.1819659732e-02    1.1471910156e+05
    1.1829792522e-02    1.1459053906e+05
    1.1839991435e-02    1.1446103906e+05
    1.1849734001e-02    1.1433722656e+05
    1.1859982274e-02    1.1420687500e+05
    1.1869821697e-02    1.1408168750e+05
    1.1879644357e-02    1.1395677344e+05
    1.1889544316e-02    1.1383228906e+05
    1.1899957433e-02    1.1370117969e+05
    1.1909895577e-02    1.1357815625e+05
    1.1919938959e-02    1.1345506250e+05
    1.1929932050e-02    1.1333335156e+05
    1.1939978227e-02    1.1321278906e+05
    1.1949554086e-02    1.1309877344e+05
    1.1959646828e-02    1.1297875781e+05
    1.1969862506e-02    1.1285807031e+05
    1.1979538947e-02    1.1274246094e+05
    1.1989740655e-02    1.1261965625e+05
    1.1999969371e-02    1.1249621094e+05
    1.2009769678e-02    1.1237721875e+05
    1.2019567192e-02    1.1225684375e+05
    1.2029922567e-02    1.1212960156e+05
    1.2039798312e-02    1.1200964844e+05
    1.2049684301e-02    1.1189008594e+05
    1.2059650384e-02    1.1177147656e+05
    1.2069595978e-02    1.1165375000e+05
    1.2079581618e-02    1.1153790625e+05
    1.2089564465e-02    1.1142369531e+05
    1.2099516578e-02    1.1131106250e+05
    1.2109545060e-02    1.1120030469e+05
    1.2119606137e-02    1.1108992969e+05
    1.2129686773e-02    1.1097996094e+05
    1.2139816768e-02    1.1086959375e+05
    1.2149969116e-02    1.1075753906e+05
    1.2159586884e-02    1.1065047656e+05
    1.2169767171e-02    1.1053509375e+05
    1.2179992162e-02    1.1041810156e+05
    1.2189663947e-02    1.1030656250e+05
    1.2199931778e-02    1.1018777344e+05
    1.2209653854e-02    1.1007552344e+05
    1.2219944969e-02    1.0995716406e+05
    1.2229721062e-02    1.0984597656e+05
    1.2239457108e-02    1.0973592969e+05
    1.2249750085e-02    1.0962075781e+05
    1.2259455398e-02    1.0951277344e+05
    1.2269660830e-02    1.0940071875e+05
    1.2279708870e-02    1.0929128906e+05
    1.2289508246e-02    1.0918572656e+05
    1.2299530208e-02    1.0907886719e+05
    1.2309698388e-02    1.0897146875e+05
    1.2319977395e-02    1.0886383594e+05
    1.2329887599e-02    1.0876084375e+05
    1.2339866720e-02    1.0865772656e+05
    1.2349877506e-02    1.0855474219e+05
    1.2359883636e-02    1.0845203125e+05
    1.2369843200e-02    1.0834978125e+05
    1.2379718013e-02    1.0824822656e+05
    1.2389804237e-02    1.0814428906e+05
    1.2399681844e-02    1.0804236719e+05
    1.2409906834e-02    1.0793684375e+05
    1.2419746257e-02    1.0783527344e+05
    1.2429914437e-02    1.0773035156e+05
    1.2439899147e-02    1.0762752344e+05
    1.2449936010e-02    1.0752461719e+05
    1.2459983118e-02    1.0742205469e+05
    1.2469974346e-02    1.0732015625e+05
    1.2479937635e-02    1.0721902344e+05
    1.2489970773e-02    1.0711717969e+05
    1.2499983422e-02    1.0701575781e+05
    1.2509844266e-02    1.0691613281e+05
    1.2519983575e-02    1.0681384375e+05
    1.2529953383e-02    1.0671333594e+05
    1.2539986521e-02    1.0661239844e+05
    1.2549815699e-02    1.0651378906e+05
    1.2559912167e-02    1.0641311719e+05
    1.2569852173e-02    1.0631460156e+05
    1.2579854578e-02    1.0621603125e+05
    1.2589902617e-02    1.0611753125e+05
    1.2599961832e-02    1.0601971094e+05
    1.2609979138e-02    1.0592302344e+05
    1.2619925663e-02    1.0582767969e+05
    1.2629779987e-02    1.0573389844e+05
    1.2639945373e-02    1.0563764844e+05
    1.2649967335e-02    1.0554316406e+05
    1.2659845874e-02    1.0545058594e+05
    1.2669999152e-02    1.0535581250e+05
    1.2679995969e-02    1.0526284375e+05
    1.2689793482e-02    1.0517183594e+05
    1.2699881569e-02    1.0507822656e+05
    1.2709992006e-02    1.0498455469e+05
    1.2719920836e-02    1.0489277344e+05
    1.2729875743e-02    1.0480099219e+05
    1.2739865109e-02    1.0470903906e+05
    1.2749888003e-02    1.0461691406e+05
    1.2759927660e-02    1.0452483594e+05
    1.2769776396e-02    1.0443487500e+05
    1.2779858895e-02    1.0434324219e+05
    1.2789994478e-02    1.0425153906e+05
    1.2799891643e-02    1.0416237500e+05
    1.2809826061e-02    1.0407317969e+05
    1.2819768861e-02    1.0398421875e+05
    1.2829976156e-02    1.0389321094e+05
    1.2839977629e-02    1.0380439844e+05
    1.2849964201e-02    1.0371607031e+05
    1.2859767303e-02    1.0362955469e+05
    1.2869806029e-02    1.0354114844e+05
    1.2879873626e-02    1.0345278906e+05
    1.2889955193e-02    1.0336467969e+05
    1.2899830937e-02    1.0327865625e+05
    1.2909952551e-02    1.0319071094e+05
    1.2919849716e-02    1.0310496875e+05
    1.2929783203e-02    1.0301922656e+05
    1.2939957902e-02    1.0293172656e+05
    1.2949905358e-02    1.0284653906e+05
    1.2959885411e-02    1.0276139844e+05
    1.2969875708e-02    1.0267641406e+05
    1.2979866937e-02    1.0259156250e+05
    1.2989889830e-02    1.0250665625e+05
    1.2999930419e-02    1.0242183594e+05
    1.3009967282e-02    1.0233730469e+05
    1.3019781560e-02    1.0225496875e+05
    1.3029867783e-02    1.0217053906e+05
    1.3039948419e-02    1.0208633594e+05
    1.3049791567e-02    1.0200414844e+05
    1.3059915975e-02    1.0191971094e+05
    1.3069796376e-02    1.0183755469e+05
    1.3079917058e-02    1.0175375781e+05
    1.3089825399e-02    1.0167203906e+05
    1.3099994510e-02    1.0158835156e+05
    1.3109903783e-02    1.0150689844e+05
    1.3119834475e-02    1.0142553906e+05
    1.3129794039e-02    1.0134435156e+05
    1.3139991090e-02    1.0126175000e+05
    1.3149947859e-02    1.0118160156e+05
    1.3159934431e-02    1.0110166406e+05
    1.3169922866e-02    1.0102218750e+05
    1.3179906644e-02    1.0094325000e+05
    1.3189918362e-02    1.0086467969e+05
    1.3199944980e-02    1.0078667969e+05
    1.3209957629e-02    1.0070941406e+05
    1.3219984248e-02    1.0063256250e+05
    1.3229789212e-02    1.0055777344e+05
    1.3239840046e-02    1.0048139844e+05
    1.3249888085e-02    1.0040525000e+05
    1.3259962201e-02    1.0032899219e+05
    1.3269794174e-02    1.0025466406e+05
    1.3279882260e-02    1.0017842969e+05
    1.3289980590e-02    1.0010199219e+05
    1.3299838640e-02    1.0002714844e+05
    1.3309950009e-02    9.9950273438e+04
    1.3319816440e-02    9.9875273438e+04
    1.3329959475e-02    9.9798320312e+04
    1.3339847326e-02    9.9723500000e+04
    1.3349989429e-02    9.9647031250e+04
    1.3359892182e-02    9.9572710938e+04
    1.3369810767e-02    9.9498648438e+04
    1.3379981741e-02    9.9423148438e+04
    1.3389901258e-02    9.9349882812e+04
    1.3399835676e-02    9.9276710938e+04
    1.3409778476e-02    9.9203523438e+04
    1.3419982046e-02    9.9128585938e+04
    1.3429935090e-02    9.9055710938e+04
    1.3439897448e-02    9.8982945312e+04
    1.3449861668e-02    9.8910195312e+04
    1.3459840789e-02    9.8837304688e+04
    1.3469823636e-02    9.8764523438e+04
    1.3479810208e-02    9.8692101562e+04
    1.3489799574e-02    9.8620187500e+04
    1.3499801047e-02    9.8548664062e+04
    1.3509812765e-02    9.8477523438e+04
    1.3519824483e-02    9.8406882812e+04
    1.3529838063e-02    9.8336906250e+04
    1.3539862819e-02    9.8267648438e+04
    1.3549895026e-02    9.8199101562e+04
    1.3559931889e-02    9.8131023438e+04
    1.3569971547e-02    9.8063164062e+04
    1.3579756021e-02    9.7997250000e+04
    1.3589809649e-02    9.7929718750e+04
    1.3599869795e-02    9.7862039062e+04
    1.3609933667e-02    9.7793882812e+04
    1.3619999401e-02    9.7725164062e+04
    1.3629809022e-02    9.7657789062e+04
    1.3639886864e-02    9.7588210938e+04
    1.3649970293e-02    9.7518312500e+04
    1.3659794815e-02    9.7450101562e+04
    1.3669884764e-02    9.7380195312e+04
    1.3679977506e-02    9.7310679688e+04
    1.3689818792e-02    9.7243500000e+04
    1.3699922711e-02    9.7175281250e+04
    1.3709763996e-02    9.7109593750e+04
    1.3719871640e-02    9.7042968750e+04
    1.3729985803e-02    9.6977218750e+04
    1.3739846647e-02    9.6913937500e+04
    1.3749971986e-02    9.6849585938e+04
    1.3759837486e-02    9.6787257812e+04
    1.3769965619e-02    9.6723523438e+04
    1.3779836707e-02    9.6661507812e+04
    1.3789965771e-02    9.6597695312e+04
    1.3799836859e-02    9.6535132812e+04
    1.3809966855e-02    9.6470492188e+04
    1.3819841668e-02    9.6407179688e+04
    1.3829983771e-02    9.6341960938e+04
    1.3839868829e-02    9.6278210938e+04
    1.3849756680e-02    9.6214304688e+04
    1.3859905303e-02    9.6148742188e+04
    1.3869795017e-02    9.6085164062e+04
    1.3879943639e-02    9.6020460938e+04
    1.3889832422e-02    9.5957968750e+04
    1.3899981044e-02    9.5894375000e+04
    1.3909868896e-02    9.5832937500e+04
    1.3919756748e-02    9.5772125000e+04
    1.3929904439e-02    9.5710476562e+04
    1.3939792290e-02    9.5651125000e+04
    1.3949940912e-02    9.5590679688e+04
    1.3959829696e-02    9.5532101562e+04
    1.3969979249e-02    9.5472281250e+04
    1.3979868963e-02    9.5414117188e+04
    1.3989759609e-02    9.5355726562e+04
    1.3999911956e-02    9.5295273438e+04
    1.4009803534e-02    9.5235789062e+04
    1.4019957744e-02    9.5174242188e+04
    1.4029851183e-02    9.5113898438e+04
    1.4039745554e-02    9.5053320312e+04
    1.4049899764e-02    9.4991195312e+04
    1.4059794135e-02    9.4931007812e+04
    1.4069949277e-02    9.4869976562e+04
    1.4079843648e-02    9.4811500000e+04
    1.4089999720e-02    9.4752625000e+04
    1.4099895023e-02    9.4696289062e+04
    1.4109792188e-02    9.4640835938e+04
    1.4119949192e-02    9.4584539062e+04
    1.4129846357e-02    9.4529968750e+04
    1.4139744453e-02    9.4475304688e+04
    1.4149903320e-02    9.4418804688e+04
    1.4159802347e-02    9.4363148438e+04
    1.4169961214e-02    9.4305273438e+04
    1.4179861173e-02    9.4248148438e+04
    1.4189760201e-02    9.4190429688e+04
    1.4199920930e-02    9.4131023438e+04
    1.4209821820e-02    9.4073429688e+04
    1.4219982550e-02    9.4015031250e+04
    1.4229883440e-02    9.3958992188e+04
    1.4239784330e-02    9.3903976562e+04
    1.4249945991e-02    9.3848632812e+04
    1.4259847812e-02    9.3795679688e+04
    1.4269751497e-02    9.3743414062e+04
    1.4279915951e-02    9.3690195312e+04
    1.4289823361e-02    9.3638382812e+04
    1.4299994335e-02    9.3584835938e+04
    1.4309908263e-02    9.3532007812e+04
    1.4319823124e-02    9.3478476562e+04
    1.4329998754e-02    9.3422804688e+04
    1.4339912683e-02    9.3368007812e+04
    1.4349824749e-02    9.3313031250e+04
    1.4359997585e-02    9.3256789062e+04
    1.4369908720e-02    9.3202476562e+04
    1.4379820786e-02    9.3149023438e+04
    1.4389995486e-02    9.3095312500e+04
    1.4399913140e-02    9.3044156250e+04
    1.4409831725e-02    9.2993960938e+04
    1.4419750310e-02    9.2944406250e+04
    1.4429928735e-02    9.2893914062e+04
    1.4439847320e-02    9.2844656250e+04
    1.4449764974e-02    9.2794875000e+04
    1.4459943399e-02    9.2742875000e+04
    1.4469861984e-02    9.2691226562e+04
    1.4479780570e-02    9.2638812500e+04
    1.4489959925e-02    9.2584664062e+04
    1.4499879442e-02    9.2532085938e+04
    1.4509798959e-02    9.2480101562e+04
    1.4519979246e-02    9.2427773438e+04
    1.4529897831e-02    9.2377968750e+04
    1.4539817348e-02    9.2329429688e+04
    1.4549996704e-02    9.2280726562e+04
    1.4559916221e-02    9.2233929688e+04
    1.4569835737e-02    9.2187187500e+04
    1.4579755254e-02    9.2140054688e+04
    1.4589936472e-02    9.2090882812e+04
    1.4599855989e-02    9.2041968750e+04
    1.4609776437e-02    9.1992101562e+04
    1.4619956724e-02    9.1940375000e+04
    1.4629876241e-02    9.1889945312e+04
    1.4639795758e-02    9.1839960938e+04
    1.4649976976e-02    9.1789617188e+04
    1.4659897424e-02    9.1741867188e+04
    1.4669817872e-02    9.1695382812e+04
    1.4679999091e-02    9.1648664062e+04
    1.4689918607e-02    9.1603726562e+04
    1.4699839056e-02    9.1558914062e+04
    1.4709759504e-02    9.1513726562e+04
    1.4719940722e-02    9.1466570312e+04
    1.4729861170e-02    9.1419695312e+04
    1.4739781618e-02    9.1371968750e+04
    1.4749963768e-02    9.1322414062e+04
    1.4759884216e-02    9.1274195312e+04
    1.4769804664e-02    9.1226585938e+04
    1.4779985882e-02    9.1178781250e+04
    1.4789907262e-02    9.1133445312e+04
    1.4799828641e-02    9.1089312500e+04
    1.4809749089e-02    9.1046054688e+04
    1.4819931239e-02    9.1002031250e+04
    1.4829851687e-02    9.0958976562e+04
    1.4839773066e-02    9.0915320312e+04
    1.4849955216e-02    9.0869593750e+04
    1.4859876595e-02    9.0824148438e+04
    1.4869797975e-02    9.0778054688e+04
    1.4879980125e-02    9.0730531250e+04
    1.4889900573e-02    9.0684648438e+04
    1.4899821952e-02    9.0639710938e+04
    1.4909743331e-02    9.0595976562e+04
    1.4919926412e-02    9.0552289062e+04
    1.4929847792e-02    9.0510679688e+04
    1.4939769171e-02    9.0469593750e+04
    1.4949951321e-02    9.0427304688e+04
    1.4959873632e-02    9.0385367188e+04
    1.4969795011e-02    9.0342507812e+04
    1.4979978092e-02    9.0297679688e+04
    1.4989899471e-02    9.0253492188e+04
    1.4999820851e-02    9.0209226562e+04
    1.5009743161e-02    9.0165382812e+04
    1.5019926243e-02    9.0121335938e+04
    1.5029847622e-02    9.0079601562e+04
    1.5039769933e-02    9.0038992188e+04
    1.5049953014e-02    8.9998062500e+04
    1.5059874393e-02    8.9958406250e+04
    1.5069796704e-02    8.9918523438e+04
    1.5079980716e-02    8.9876914062e+04
    1.5089902095e-02    8.9835523438e+04
    1.5099824406e-02    8.9793343750e+04
    1.5109746717e-02    8.9750851562e+04
    1.5119930729e-02    8.9707492188e+04
    1.5129853040e-02    8.9665960938e+04
    1.5139775351e-02    8.9625406250e+04
    1.5149959363e-02    8.9584851562e+04
    1.5159881674e-02    8.9546156250e+04
    1.5169804916e-02    8.9507875000e+04
    1.5179988928e-02    8.9468507812e+04
    1.5189912170e-02    8.9429632812e+04
    1.5199835412e-02    8.9390039062e+04
    1.5209757723e-02    8.9349789062e+04
    1.5219942667e-02    8.9308148438e+04
    1.5229865909e-02    8.9267617188e+04
    1.5239789151e-02    8.9227648438e+04
    1.5249974094e-02    8.9187539062e+04
    1.5259898268e-02    8.9149429688e+04
    1.5269821510e-02    8.9112023438e+04
    1.5279745683e-02    8.9074945312e+04
    1.5289931558e-02    8.9036851562e+04
    1.5299855731e-02    8.8999429688e+04
    1.5309779905e-02    8.8961398438e+04
    1.5319965780e-02    8.8921656250e+04
    1.5329889953e-02    8.8882648438e+04
    1.5339814126e-02    8.8843945312e+04
    1.5349739231e-02    8.8805851562e+04
    1.5359925106e-02    8.8767429688e+04
    1.5369850211e-02    8.8730664062e+04
    1.5379774384e-02    8.8694585938e+04
    1.5389961191e-02    8.8657937500e+04
    1.5399886295e-02    8.8622101562e+04
    1.5409812331e-02    8.8585773438e+04
    1.5420000069e-02    8.8547898438e+04
    1.5429926105e-02    8.8510625000e+04
    1.5439852141e-02    8.8473351562e+04
    1.5449778177e-02    8.8436398438e+04
    1.5459965914e-02    8.8399000000e+04
    1.5469892882e-02    8.8363242188e+04
    1.5479819849e-02    8.8328195312e+04
    1.5489746816e-02    8.8293539062e+04
    1.5499934554e-02    8.8257914062e+04
    1.5509861521e-02    8.8222906250e+04
    1.5519788489e-02    8.8187585938e+04
    1.5529978089e-02    8.8151054688e+04
    1.5539905056e-02    8.8115289062e+04
    1.5549832955e-02    8.8079656250e+04
    1.5559760854e-02    8.8044460938e+04
    1.5569949523e-02    8.8009023438e+04
    1.5579877421e-02    8.7975093750e+04
    1.5589805320e-02    8.7941437500e+04
    1.5599994920e-02    8.7906851562e+04
    1.5609923750e-02    8.7873023438e+04
    1.5619852580e-02    8.7839039062e+04
    1.5629781410e-02    8.7804835938e+04
    1.5639971942e-02    8.7769570312e+04
    1.5649901703e-02    8.7735312500e+04
    1.5659831464e-02    8.7701406250e+04
    1.5669761226e-02    8.7667906250e+04
    1.5679951757e-02    8.7633898438e+04
    1.5689881518e-02    8.7601101562e+04
    1.5699811280e-02    8.7568539062e+04
    1.5709741041e-02    8.7536000000e+04
    1.5719933435e-02    8.7502382812e+04
    1.5729863197e-02    8.7469398438e+04
    1.5739794821e-02    8.7436351562e+04
    1.5749987215e-02    8.7402656250e+04
    1.5759916976e-02    8.7370117188e+04
    1.5769848600e-02    8.7337953125e+04
    1.5779780224e-02    8.7306218750e+04
    1.5789972618e-02    8.7273984375e+04
    1.5799904242e-02    8.7242609375e+04
    1.5809835866e-02    8.7211070312e+04
    1.5819767490e-02    8.7179375000e+04
    1.5829959884e-02    8.7146851562e+04
    1.5839891508e-02    8.7115335938e+04
    1.5849824995e-02    8.7084023438e+04
    1.5859756619e-02    8.7052882812e+04
    1.5869950876e-02    8.7021132812e+04
    1.5879882500e-02    8.6990484375e+04
    1.5889815986e-02    8.6960062500e+04
    1.5899749473e-02    8.6929640625e+04
    1.5909943730e-02    8.6898359375e+04
    1.5919875354e-02    8.6867921875e+04
    1.5929808840e-02    8.6837585938e+04
    1.5939742327e-02    8.6807289062e+04
    1.5949938446e-02    8.6776265625e+04
    1.5959871933e-02    8.6746250000e+04
    1.5969805419e-02    8.6716531250e+04
    1.5979738906e-02    8.6687101562e+04
    1.5989935026e-02    8.6657046875e+04
    1.5999870375e-02    8.6627726562e+04
    1.6009803861e-02    8.6598343750e+04
    1.6019739211e-02    8.6568984375e+04
    1.6029935330e-02    8.6538898438e+04
    1.6039870679e-02    8.6509679688e+04
    1.6049806029e-02    8.6480718750e+04
    1.6059739515e-02    8.6452070312e+04
    1.6069937497e-02    8.6422804688e+04
    1.6079872847e-02    8.6394265625e+04
    1.6089808196e-02    8.6365773438e+04
    1.6099743545e-02    8.6337429688e+04
    1.6109941527e-02    8.6308476562e+04
    1.6119876876e-02    8.6280343750e+04
    1.6129814088e-02    8.6252250000e+04
    1.6139749438e-02    8.6224203125e+04
    1.6149947420e-02    8.6195578125e+04
    1.6159884632e-02    8.6167937500e+04
    1.6169821844e-02    8.6140484375e+04
    1.6179759055e-02    8.6113085938e+04
    1.6189957038e-02    8.6084992188e+04
    1.6199894249e-02    8.6057671875e+04
    1.6209831461e-02    8.6030429688e+04
    1.6219768673e-02    8.6003289062e+04
    1.6229968518e-02    8.5975585938e+04
    1.6239905730e-02    8.5948718750e+04
    1.6249842942e-02    8.5921968750e+04
    1.6259782016e-02    8.5895351562e+04
    1.6269979998e-02    8.5868156250e+04
    1.6279919073e-02    8.5841710938e+04
    1.6289856285e-02    8.5815281250e+04
    1.6299795359e-02    8.5788906250e+04
    1.6309995204e-02    8.5762054688e+04
    1.6319934279e-02    8.5736171875e+04
    1.6329873353e-02    8.5710382812e+04
    1.6339810565e-02    8.5684507812e+04
    1.6349749640e-02    8.5658671875e+04
    1.6359951347e-02    8.5632437500e+04
    1.6369890422e-02    8.5607109375e+04
    1.6379829496e-02    8.5581820312e+04
    1.6389768571e-02    8.5556539062e+04
    1.6399970278e-02    8.5530710938e+04
    1.6409909353e-02    8.5505703125e+04
    1.6419848427e-02    8.5480820312e+04
    1.6429789364e-02    8.5455976562e+04
    1.6439991072e-02    8.5430531250e+04
    1.6449930146e-02    8.5405875000e+04
    1.6459871083e-02    8.5381398438e+04
    1.6469812021e-02    8.5357023438e+04
    1.6479751095e-02    8.5332648438e+04
    1.6489952803e-02    8.5307664062e+04
    1.6499893740e-02    8.5283414062e+04
    1.6509834677e-02    8.5259312500e+04
    1.6519775614e-02    8.5235343750e+04
    1.6529977322e-02    8.5210796875e+04
    1.6539918259e-02    8.5186914062e+04
    1.6549861059e-02    8.5163164062e+04
    1.6559801996e-02    8.5139617188e+04
    1.6569742933e-02    8.5116148438e+04
    1.6579946503e-02    8.5092093750e+04
    1.6589887440e-02    8.5068812500e+04
    1.6599828377e-02    8.5045695312e+04
    1.6609771177e-02    8.5022656250e+04
    1.6619974747e-02    8.4999093750e+04
    1.6629915684e-02    8.4976296875e+04
    1.6639858484e-02    8.4953601562e+04
    1.6649799421e-02    8.4930914062e+04
    1.6659742221e-02    8.4908312500e+04
    1.6669945791e-02    8.4885296875e+04
    1.6679888591e-02    8.4863031250e+04
    1.6689829528e-02    8.4840843750e+04
    1.6699772328e-02    8.4818656250e+04
    1.6709977761e-02    8.4795843750e+04
    1.6719920561e-02    8.4773718750e+04
    1.6729863361e-02    8.4751812500e+04
    1.6739806160e-02    8.4730031250e+04
    1.6749748960e-02    8.4708226562e+04
    1.6759952530e-02    8.4685898438e+04
    1.6769895330e-02    8.4664367188e+04
    1.6779839993e-02    8.4643015625e+04
    1.6789782792e-02    8.4621718750e+04
    1.6799988225e-02    8.4599953125e+04
    1.6809931025e-02    8.4578906250e+04
    1.6819875687e-02    8.4557968750e+04
    1.6829818487e-02    8.4537031250e+04
    1.6839763150e-02    8.4516101562e+04
    1.6849968582e-02    8.4494757812e+04
    1.6859911382e-02    8.4474164062e+04
    1.6869856045e-02    8.4453687500e+04
    1.6879798844e-02    8.4433226562e+04
    1.6889743507e-02    8.4412773438e+04
    1.6899948940e-02    8.4391898438e+04
    1.6909893602e-02    8.4371710938e+04
    1.6919838265e-02    8.4351617188e+04
    1.6929782927e-02    8.4331593750e+04
    1.6939988360e-02    8.4311125000e+04
    1.6949933022e-02    8.4291281250e+04
    1.6959877685e-02    8.4271523438e+04
    1.6969822347e-02    8.4251898438e+04
    1.6979767010e-02    8.4232406250e+04
    1.6989974305e-02    8.4212507812e+04
    1.6999918967e-02    8.4193156250e+04
    1.7009863630e-02    8.4173843750e+04
    1.7019808292e-02    8.4154656250e+04
    1.7029754817e-02    8.4135632812e+04
    1.7039960250e-02    8.4116179688e+04
    1.7049906775e-02    8.4097218750e+04
    1.7059851438e-02    8.4078343750e+04
    1.7069796100e-02    8.4059617188e+04
    1.7079742625e-02    8.4040976562e+04
    1.7089949921e-02    8.4021937500e+04
    1.7099894583e-02    8.4003539062e+04
    1.7109841108e-02    8.3985203125e+04
    1.7119785771e-02    8.3966843750e+04
    1.7129993066e-02    8.3948078125e+04
    1.7139939591e-02    8.3930015625e+04
    1.7149886116e-02    8.3912140625e+04
    1.7159830779e-02    8.3894335938e+04
    1.7169777304e-02    8.3876546875e+04
    1.7179984599e-02    8.3858312500e+04
    1.7189931124e-02    8.3840640625e+04
    1.7199875787e-02    8.3823125000e+04
    1.7209822312e-02    8.3805703125e+04
    1.7219768837e-02    8.3788273438e+04
    1.7229976133e-02    8.3770406250e+04
    1.7239922658e-02    8.3753140625e+04
    1.7249869183e-02    8.3736093750e+04
    1.7259815708e-02    8.3719218750e+04
    1.7269762233e-02    8.3702359375e+04
    1.7279969528e-02    8.3685000000e+04
    1.7289916053e-02    8.3668148438e+04
    1.7299862579e-02    8.3651523438e+04
    1.7309809104e-02    8.3635015625e+04
    1.7319753766e-02    8.3618492188e+04
    1.7329962924e-02    8.3601578125e+04
    1.7339909449e-02    8.3585265625e+04
    1.7349855974e-02    8.3569062500e+04
    1.7359802499e-02    8.3552890625e+04
    1.7369749025e-02    8.3536804688e+04
    1.7379956320e-02    8.3520390625e+04
    1.7389904708e-02    8.3504500000e+04
    1.7399851233e-02    8.3488742188e+04
    1.7409797758e-02    8.3473093750e+04
    1.7419744283e-02    8.3457445312e+04
    1.7429951578e-02    8.3441390625e+04
    1.7439898103e-02    8.3425906250e+04
    1.7449846491e-02    8.3410578125e+04
    1.7459793016e-02    8.3395328125e+04
    1.7469739541e-02    8.3380101562e+04
    1.7479946837e-02    8.3364585938e+04
    1.7489893362e-02    8.3349593750e+04
    1.7499841750e-02    8.3334710938e+04
    1.7509788275e-02    8.3319875000e+04
    1.7519995570e-02    8.3304679688e+04
    1.7529942095e-02    8.3289945312e+04
    1.7539890483e-02    8.3275289062e+04
    1.7549837008e-02    8.3260710938e+04
    1.7559783533e-02    8.3246281250e+04
    1.7569992691e-02    8.3231695312e+04
    1.7579939216e-02    8.3217585938e+04
    1.7589885741e-02    8.3203421875e+04
    1.7599832267e-02    8.3189218750e+04
    1.7609778792e-02    8.3175093750e+04
    1.7619987950e-02    8.3160765625e+04
    1.7629934475e-02    8.3146992188e+04
    1.7639881000e-02    8.3133359375e+04
    1.7649827525e-02    8.3119734375e+04
    1.7659774050e-02    8.3106093750e+04
    1.7669983208e-02    8.3092140625e+04
    1.7679929733e-02    8.3078695312e+04
    1.7689876258e-02    8.3065406250e+04
    1.7699824646e-02    8.3052250000e+04
    1.7709771171e-02    8.3039101562e+04
    1.7719978467e-02    8.3025585938e+04
    1.7729926854e-02    8.3012515625e+04
    1.7739873379e-02    8.2999625000e+04
    1.7749819905e-02    8.2986804688e+04
    1.7759766430e-02    8.2973984375e+04
    1.7769975588e-02    8.2960890625e+04
    1.7779922113e-02    8.2948281250e+04
    1.7789868638e-02    8.2935828125e+04
    1.7799815163e-02    8.2923507812e+04
    1.7809761688e-02    8.2911171875e+04
    1.7819970846e-02    8.2898437500e+04
    1.7829917371e-02    8.2886101562e+04
    1.7839863896e-02    8.2873984375e+04
    1.7849810421e-02    8.2861929688e+04
    1.7859756947e-02    8.2849804688e+04
    1.7869966105e-02    8.2837429688e+04
    1.7879912630e-02    8.2825562500e+04
    1.7889859155e-02    8.2813765625e+04
    1.7899805680e-02    8.2801984375e+04
    1.7909752205e-02    8.2790328125e+04
    1.7919961363e-02    8.2778570312e+04
    1.7929907888e-02    8.2767234375e+04
    1.7939854413e-02    8.2755882812e+04
    1.7949800938e-02    8.2744507812e+04
    1.7959747463e-02    8.2733203125e+04
    1.7969956622e-02    8.2721796875e+04
    1.7979903147e-02    8.2710867188e+04
    1.7989849672e-02    8.2700000000e+04
    1.7999796197e-02    8.2689132812e+04
    1.8009742722e-02    8.2678320312e+04
    1.8019950017e-02    8.2667320312e+04
    1.8029896542e-02    8.2656703125e+04
    1.8039843068e-02    8.2646156250e+04
    1.8049789593e-02    8.2635679688e+04
    1.8059998751e-02    8.2625007812e+04
    1.8069945276e-02    8.2614695312e+04
    1.8079891801e-02    8.2604429688e+04
    1.8089838326e-02    8.2594242188e+04
    1.8099784851e-02    8.2584226562e+04
    1.8109994009e-02    8.2574117188e+04
    1.8119940534e-02    8.2564265625e+04
    1.8129887059e-02    8.2554375000e+04
    1.8139835447e-02    8.2544554688e+04
    1.8149781972e-02    8.2534890625e+04
    1.8159991130e-02    8.2525070312e+04
    1.8169939518e-02    8.2515515625e+04
    1.8179886043e-02    8.2506000000e+04
    1.8189834431e-02    8.2496609375e+04
    1.8199782819e-02    8.2487375000e+04
    1.8209991977e-02    8.2477953125e+04
    1.8219940364e-02    8.2468750000e+04
    1.8229888752e-02    8.2459609375e+04
    1.8239837140e-02    8.2450648438e+04
    1.8249785528e-02    8.2441773438e+04
    1.8259996548e-02    8.2432671875e+04
    1.8269946799e-02    8.2423906250e+04
    1.8279895186e-02    8.2415343750e+04
    1.8289843574e-02    8.2406992188e+04
    1.8299793825e-02    8.2398835938e+04
    1.8309744075e-02    8.2390882812e+04
    1.8319955096e-02    8.2382898438e+04
    1.8329905346e-02    8.2375132812e+04
    1.8339857459e-02    8.2367210938e+04
    1.8349807709e-02    8.2359078125e+04
    1.8359757960e-02    8.2350945312e+04
    1.8369970843e-02    8.2342953125e+04
    1.8379922956e-02    8.2335523438e+04
    1.8389875069e-02    8.2328148438e+04
    1.8399827182e-02    8.2320625000e+04
    1.8409777433e-02    8.2313023438e+04
    1.8419992179e-02    8.2305304688e+04
    1.8429946154e-02    8.2298007812e+04
    1.8439898267e-02    8.2290914062e+04
    1.8449854106e-02    8.2283828125e+04
    1.8459808081e-02    8.2276640625e+04
    1.8469762057e-02    8.2269578125e+04
    1.8479978666e-02    8.2262570312e+04
    1.8489932641e-02    8.2255796875e+04
    1.8499886617e-02    8.2248992188e+04
    1.8509840593e-02    8.2242296875e+04
    1.8519794568e-02    8.2235765625e+04
    1.8529748544e-02    8.2229242188e+04
    1.8539963290e-02    8.2222570312e+04
    1.8549917266e-02    8.2216250000e+04
    1.8559873104e-02    8.2210046875e+04
    1.8569827080e-02    8.2203835938e+04
    1.8579782918e-02    8.2197648438e+04
    1.8589999527e-02    8.2191453125e+04
    1.8599953502e-02    8.2185554688e+04
    1.8609909341e-02    8.2179718750e+04
    1.8619865179e-02    8.2173921875e+04
    1.8629821017e-02    8.2168195312e+04
    1.8639778718e-02    8.2162562500e+04
    1.8649997190e-02    8.2156875000e+04
    1.8659954891e-02    8.2151406250e+04
    1.8669914454e-02    8.2146039062e+04
    1.8679872155e-02    8.2140765625e+04
    1.8689829856e-02    8.2135515625e+04
    1.8699789420e-02    8.2130273438e+04
    1.8709747121e-02    8.2125179688e+04
    1.8719969317e-02    8.2120148438e+04
    1.8729930744e-02    8.2115304688e+04
    1.8739888445e-02    8.2110429688e+04
    1.8749848008e-02    8.2105601562e+04
    1.8759809434e-02    8.2100906250e+04
    1.8769772723e-02    8.2096343750e+04
    1.8779998645e-02    8.2091734375e+04
    1.8789961934e-02    8.2087265625e+04
    1.8799925223e-02    8.2082890625e+04
    1.8809890375e-02    8.2078679688e+04
    1.8819857389e-02    8.2074539062e+04
    1.8829824403e-02    8.2070406250e+04
    1.8839793280e-02    8.2066359375e+04
    1.8849762157e-02    8.2062437500e+04
    1.8859993666e-02    8.2058523438e+04
    1.8869964406e-02    8.2054765625e+04
    1.8879935145e-02    8.2051070312e+04
    1.8889905885e-02    8.2047468750e+04
    1.8899878487e-02    8.2043968750e+04
    1.8909852952e-02    8.2040531250e+04
    1.8919825554e-02    8.2037101562e+04
    1.8929801881e-02    8.2033757812e+04
    1.8939776346e-02    8.2030609375e+04
    1.8949754536e-02    8.2027593750e+04
    1.8959995359e-02    8.2024468750e+04
    1.8969977275e-02    8.2021437500e+04
    1.8979957327e-02    8.2018585938e+04
    1.8989937380e-02    8.2015875000e+04
    1.8999919295e-02    8.2013195312e+04
    1.9009903073e-02    8.2010546875e+04
    1.9019888714e-02    8.2007992188e+04
    1.9029874355e-02    8.2005554688e+04
    1.9039859995e-02    8.2003226562e+04
    1.9049845636e-02    8.2000945312e+04
    1.9059835002e-02    8.1998695312e+04
    1.9069828093e-02    8.1996562500e+04
    1.9079819322e-02    8.1994593750e+04
    1.9089812413e-02    8.1992664062e+04
    1.9099807367e-02    8.1990742188e+04
    1.9109802321e-02    8.1988929688e+04
    1.9119799137e-02    8.1987265625e+04
    1.9129797816e-02    8.1985656250e+04
    1.9139798358e-02    8.1984078125e+04
    1.9149798900e-02    8.1982609375e+04
    1.9159803167e-02    8.1981234375e+04
    1.9169807434e-02    8.1979945312e+04
    1.9179811701e-02    8.1978742188e+04
    1.9189819694e-02    8.1977625000e+04
    1.9199829549e-02    8.1976601562e+04
    1.9209841266e-02    8.1975679688e+04
    1.9219852984e-02    8.1974851562e+04
    1.9229866564e-02    8.1974093750e+04
    1.9239882007e-02    8.1973453125e+04
    1.9249899313e-02    8.1972960938e+04
    1.9259918481e-02    8.1972546875e+04
    1.9269939512e-02    8.1972148438e+04
    1.9279962406e-02    8.1971804688e+04
    1.9289985299e-02    8.1971562500e+04
    1.9299745560e-02    8.1971406250e+04
    1.9309774041e-02    8.1971320312e+04
    1.9319802523e-02    8.1971343750e+04
    1.9329832867e-02    8.1971515625e+04
    1.9339865074e-02    8.1971796875e+04
    1.9349899143e-02    8.1972093750e+04
    1.9359935075e-02    8.1972398438e+04
    1.9369971007e-02    8.1972859375e+04
    1.9379748031e-02    8.1973507812e+04
    1.9389789551e-02    8.1974242188e+04
    1.9399831071e-02    8.1974937500e+04
    1.9409874454e-02    8.1975703125e+04
    1.9419919699e-02    8.1976687500e+04
    1.9429966807e-02    8.1977820312e+04
    1.9439751282e-02    8.1978976562e+04
[...]
    1.1513981223e-01    1.0122508594e+05
    1.1514984816e-01    1.0122507031e+05
    1.1515988410e-01    1.0122506250e+05
    1.1516992003e-01    1.0122505469e+05
    1.1517995596e-01    1.0122503906e+05
    1.1518999189e-01    1.0122503906e+05
    1.1519972235e-01    1.0122503906e+05
    1.1520975828e-01    1.0122503125e+05
    1.1521979421e-01    1.0122502344e+05
    1.1522983015e-01    1.0122502344e+05
    1.1523985863e-01    1.0122500781e+05
    1.1524989456e-01    1.0122500000e+05
    1.1525993049e-01    1.0122500000e+05
    1.1526996642e-01    1.0122499219e+05
    1.1527969688e-01    1.0122497656e+05
    1.1528973281e-01    1.0122497656e+05
    1.1529976875e-01    1.0122496875e+05
    1.1530980468e-01    1.0122496094e+05
    1.1531984061e-01    1.0122496094e+05
    1.1532987654e-01    1.0122494531e+05
    1.1533991247e-01    1.0122494531e+05
    1.1534994841e-01    1.0122493750e+05
    1.1535998434e-01    1.0122492969e+05
    1.1536971480e-01    1.0122491406e+05
    1.1537975073e-01    1.0122491406e+05
    1.1538978666e-01    1.0122490625e+05
    1.1539981514e-01    1.0122489844e+05
    1.1540985107e-01    1.0122489844e+05
    1.1541988701e-01    1.0122488281e+05
    1.1542992294e-01    1.0122488281e+05
    1.1543995887e-01    1.0122487500e+05
    1.1544999480e-01    1.0122486719e+05
    1.1545972526e-01    1.0122485156e+05
    1.1546976119e-01    1.0122485156e+05
    1.1547979712e-01    1.0122485156e+05
    1.1548983306e-01    1.0122484375e+05
    1.1549986899e-01    1.0122483594e+05
    1.1550990492e-01    1.0122483594e+05
    1.1551994085e-01    1.0122482031e+05
    1.1552996933e-01    1.0122481250e+05
    1.1553970724e-01    1.0122480469e+05
    1.1554973572e-01    1.0122480469e+05
    1.1555977166e-01    1.0122478906e+05
    1.1556980759e-01    1.0122478906e+05
    1.1557984352e-01    1.0122478125e+05
    1.1558987945e-01    1.0122477344e+05
    1.1559991539e-01    1.0122477344e+05
    1.1560995132e-01    1.0122475781e+05
    1.1561998725e-01    1.0122475000e+05
    1.1562971771e-01    1.0122474219e+05
    1.1563975364e-01    1.0122474219e+05
    1.1564978957e-01    1.0122472656e+05
    1.1565982550e-01    1.0122472656e+05
    1.1566986144e-01    1.0122471875e+05
    1.1567988992e-01    1.0122471094e+05
    1.1568992585e-01    1.0122471094e+05
    1.1569996178e-01    1.0122469531e+05
    1.1570999771e-01    1.0122469531e+05
    1.1571972817e-01    1.0122468750e+05
    1.1572976410e-01    1.0122467969e+05
    1.1573980004e-01    1.0122466406e+05
    1.1574983597e-01    1.0122466406e+05
    1.1575987190e-01    1.0122466406e+05
    1.1576990783e-01    1.0122465625e+05
    1.1577994376e-01    1.0122464844e+05
    1.1578997970e-01    1.0122464844e+05
    1.1579971015e-01    1.0122463281e+05
    1.1580974609e-01    1.0122463281e+05
    1.1581978202e-01    1.0122462500e+05
    1.1582981795e-01    1.0122461719e+05
    1.1583984643e-01    1.0122460156e+05
    1.1584988236e-01    1.0122460156e+05
    1.1585991830e-01    1.0122459375e+05
    1.1586995423e-01    1.0122458594e+05
    1.1587999016e-01    1.0122458594e+05
    1.1588972062e-01    1.0122458594e+05
    1.1589975655e-01    1.0122457031e+05
    1.1590979248e-01    1.0122456250e+05
    1.1591982841e-01    1.0122455469e+05
    1.1592986435e-01    1.0122453906e+05
    1.1593990028e-01    1.0122453906e+05
    1.1594993621e-01    1.0122453906e+05
    1.1595997214e-01    1.0122453125e+05
    1.1596970260e-01    1.0122452344e+05
    1.1597973853e-01    1.0122452344e+05
    1.1598977447e-01    1.0122452344e+05
    1.1599980295e-01    1.0122450781e+05
    1.1600983888e-01    1.0122450000e+05
    1.1601987481e-01    1.0122449219e+05
    1.1602991074e-01    1.0122447656e+05
    1.1603994668e-01    1.0122447656e+05
    1.1604998261e-01    1.0122447656e+05
    1.1605971307e-01    1.0122446875e+05
    1.1606974900e-01    1.0122446094e+05
    1.1607978493e-01    1.0122446094e+05
    1.1608982086e-01    1.0122444531e+05
    1.1609985679e-01    1.0122444531e+05
    1.1610989273e-01    1.0122443750e+05
    1.1611992866e-01    1.0122442969e+05
    1.1612995714e-01    1.0122441406e+05
    1.1613999307e-01    1.0122441406e+05
    1.1614972353e-01    1.0122441406e+05
    1.1615975946e-01    1.0122440625e+05
    1.1616979539e-01    1.0122439844e+05
    1.1617983133e-01    1.0122439844e+05
    1.1618986726e-01    1.0122438281e+05
    1.1619990319e-01    1.0122438281e+05
    1.1620993912e-01    1.0122437500e+05
    1.1621997505e-01    1.0122436719e+05
    1.1622970551e-01    1.0122435156e+05
    1.1623974144e-01    1.0122435156e+05
    1.1624977738e-01    1.0122435156e+05
    1.1625981331e-01    1.0122434375e+05
    1.1626984924e-01    1.0122433594e+05
    1.1627988517e-01    1.0122433594e+05
    1.1628991365e-01    1.0122432031e+05
    1.1629994959e-01    1.0122431250e+05
    1.1630998552e-01    1.0122431250e+05
    1.1631971598e-01    1.0122430469e+05
    1.1632975191e-01    1.0122428906e+05
    1.1633978784e-01    1.0122428906e+05
    1.1634982377e-01    1.0122428125e+05
    1.1635985970e-01    1.0122428125e+05
    1.1636989564e-01    1.0122427344e+05
    1.1637993157e-01    1.0122427344e+05
    1.1638996750e-01    1.0122425781e+05
    1.1639969796e-01    1.0122425000e+05
    1.1640973389e-01    1.0122424219e+05
    1.1641976982e-01    1.0122424219e+05
    1.1642980576e-01    1.0122422656e+05
    1.1643984169e-01    1.0122422656e+05
    1.1644987017e-01    1.0122421875e+05
    1.1645990610e-01    1.0122421875e+05
    1.1646994203e-01    1.0122421094e+05
    1.1647997797e-01    1.0122421094e+05
    1.1648970842e-01    1.0122419531e+05
    1.1649974436e-01    1.0122418750e+05
    1.1650978029e-01    1.0122417969e+05
    1.1651981622e-01    1.0122417969e+05
    1.1652985215e-01    1.0122416406e+05
    1.1653988808e-01    1.0122416406e+05
    1.1654992402e-01    1.0122415625e+05
    1.1655995995e-01    1.0122414844e+05
    1.1656999588e-01    1.0122414844e+05
    1.1657972634e-01    1.0122413281e+05
    1.1658976227e-01    1.0122413281e+05
    1.1659979820e-01    1.0122412500e+05
    1.1660982668e-01    1.0122411719e+05
    1.1661986262e-01    1.0122410156e+05
    1.1662989855e-01    1.0122410156e+05
    1.1663993448e-01    1.0122409375e+05
    1.1664997041e-01    1.0122409375e+05
    1.1665970087e-01    1.0122408594e+05
    1.1666973680e-01    1.0122408594e+05
    1.1667977273e-01    1.0122407031e+05
    1.1668980867e-01    1.0122406250e+05
    1.1669984460e-01    1.0122405469e+05
    1.1670988053e-01    1.0122403906e+05
    1.1671991646e-01    1.0122403906e+05
    1.1672995239e-01    1.0122403125e+05
    1.1673998833e-01    1.0122403125e+05
    1.1674971879e-01    1.0122402344e+05
    1.1675975472e-01    1.0122402344e+05
    1.1676979065e-01    1.0122402344e+05
    1.1677981913e-01    1.0122402344e+05
    1.1678985506e-01    1.0122400781e+05
    1.1679989100e-01    1.0122400000e+05
    1.1680992693e-01    1.0122400000e+05
    1.1681996286e-01    1.0122399219e+05
    1.1682999879e-01    1.0122397656e+05
    1.1683972925e-01    1.0122397656e+05
    1.1684976518e-01    1.0122396875e+05
    1.1685980111e-01    1.0122396094e+05
    1.1686983705e-01    1.0122394531e+05
    1.1687987298e-01    1.0122393750e+05
    1.1688990891e-01    1.0122392969e+05
    1.1689994484e-01    1.0122391406e+05
    1.1690998077e-01    1.0122391406e+05
    1.1691971123e-01    1.0122391406e+05
    1.1692974716e-01    1.0122391406e+05
    1.1693977565e-01    1.0122390625e+05
    1.1694981158e-01    1.0122390625e+05
    1.1695984751e-01    1.0122389844e+05
    1.1696988344e-01    1.0122389844e+05
    1.1697991937e-01    1.0122389844e+05
    1.1698995531e-01    1.0122388281e+05
    1.1699999124e-01    1.0122388281e+05
    1.1700972170e-01    1.0122387500e+05
    1.1701975763e-01    1.0122386719e+05
    1.1702979356e-01    1.0122385156e+05
    1.1703982949e-01    1.0122385156e+05
    1.1704986542e-01    1.0122384375e+05
    1.1705990136e-01    1.0122383594e+05
    1.1706993729e-01    1.0122383594e+05
    1.1707996577e-01    1.0122383594e+05
    1.1708970368e-01    1.0122382031e+05
    1.1709973216e-01    1.0122381250e+05
    1.1710976809e-01    1.0122381250e+05
    1.1711980402e-01    1.0122380469e+05
    1.1712983996e-01    1.0122380469e+05
    1.1713987589e-01    1.0122378906e+05
    1.1714991182e-01    1.0122378906e+05
    1.1715994775e-01    1.0122378125e+05
    1.1716998369e-01    1.0122377344e+05
    1.1717971414e-01    1.0122377344e+05
    1.1718975008e-01    1.0122375781e+05
    1.1719978601e-01    1.0122375000e+05
    1.1720982194e-01    1.0122372656e+05
    1.1721985787e-01    1.0122372656e+05
    1.1722989380e-01    1.0122372656e+05
    1.1723992229e-01    1.0122371875e+05
    1.1724995822e-01    1.0122371875e+05
    1.1725999415e-01    1.0122371094e+05
    1.1726972461e-01    1.0122371094e+05
    1.1727976054e-01    1.0122371094e+05
    1.1728979647e-01    1.0122369531e+05
    1.1729983240e-01    1.0122368750e+05
    1.1730986834e-01    1.0122367969e+05
    1.1731990427e-01    1.0122366406e+05
    1.1732994020e-01    1.0122366406e+05
    1.1733997613e-01    1.0122365625e+05
    1.1734970659e-01    1.0122365625e+05
    1.1735974252e-01    1.0122364844e+05
    1.1736977845e-01    1.0122364844e+05
    1.1737981439e-01    1.0122364844e+05
    1.1738985032e-01    1.0122363281e+05
    1.1739987880e-01    1.0122363281e+05
    1.1740991473e-01    1.0122362500e+05
    1.1741995066e-01    1.0122361719e+05
    1.1742998660e-01    1.0122360156e+05
    1.1743971705e-01    1.0122360156e+05
    1.1744975299e-01    1.0122359375e+05
    1.1745978892e-01    1.0122358594e+05
    1.1746982485e-01    1.0122358594e+05
    1.1747986078e-01    1.0122358594e+05
    1.1748989671e-01    1.0122357031e+05
    1.1749993265e-01    1.0122356250e+05
    1.1750996858e-01    1.0122355469e+05
    1.1751969904e-01    1.0122355469e+05
    1.1752973497e-01    1.0122353906e+05
    1.1753977090e-01    1.0122353906e+05
    1.1754980683e-01    1.0122353906e+05
    1.1755983531e-01    1.0122353906e+05
    1.1756987125e-01    1.0122353125e+05
    1.1757990718e-01    1.0122352344e+05
    1.1758994311e-01    1.0122352344e+05
    1.1759997904e-01    1.0122352344e+05
    1.1760970950e-01    1.0122350781e+05
    1.1761974543e-01    1.0122350000e+05
    1.1762978137e-01    1.0122349219e+05
    1.1763981730e-01    1.0122347656e+05
    1.1764985323e-01    1.0122347656e+05
    1.1765988916e-01    1.0122346875e+05
    1.1766992509e-01    1.0122346094e+05
    1.1767996103e-01    1.0122346094e+05
    1.1768999696e-01    1.0122344531e+05
    1.1769972742e-01    1.0122343750e+05
    1.1770976335e-01    1.0122342969e+05
    1.1771979183e-01    1.0122341406e+05
    1.1772982776e-01    1.0122341406e+05
    1.1773986369e-01    1.0122341406e+05
    1.1774989963e-01    1.0122340625e+05
    1.1775993556e-01    1.0122340625e+05
    1.1776997149e-01    1.0122339844e+05
    1.1777970195e-01    1.0122339844e+05
    1.1778973788e-01    1.0122339844e+05
    1.1779977381e-01    1.0122338281e+05
    1.1780980974e-01    1.0122338281e+05
    1.1781984568e-01    1.0122337500e+05
    1.1782988161e-01    1.0122336719e+05
    1.1783991754e-01    1.0122335156e+05
    1.1784995347e-01    1.0122335156e+05
    1.1785998195e-01    1.0122334375e+05
    1.1786971986e-01    1.0122333594e+05
    1.1787974834e-01    1.0122333594e+05
    1.1788978428e-01    1.0122332031e+05
    1.1789982021e-01    1.0122331250e+05
    1.1790985614e-01    1.0122330469e+05
    1.1791989207e-01    1.0122328906e+05
    1.1792992800e-01    1.0122328906e+05
    1.1793996394e-01    1.0122328906e+05
    1.1794999987e-01    1.0122328125e+05
    1.1795973033e-01    1.0122327344e+05
    1.1796976626e-01    1.0122327344e+05
    1.1797980219e-01    1.0122325781e+05
    1.1798983812e-01    1.0122325000e+05
    1.1799987406e-01    1.0122325000e+05
    1.1800990999e-01    1.0122324219e+05
    1.1801993847e-01    1.0122322656e+05
    1.1802997440e-01    1.0122322656e+05
    1.1803970486e-01    1.0122322656e+05
    1.1804974079e-01    1.0122322656e+05
    1.1805977672e-01    1.0122321875e+05
    1.1806981266e-01    1.0122321094e+05
    1.1807984859e-01    1.0122321094e+05
    1.1808988452e-01    1.0122321094e+05
    1.1809992045e-01    1.0122319531e+05
    1.1810995638e-01    1.0122318750e+05
    1.1811999232e-01    1.0122317969e+05
    1.1812972277e-01    1.0122316406e+05
    1.1813975871e-01    1.0122316406e+05
    1.1814979464e-01    1.0122316406e+05
    1.1815983057e-01    1.0122315625e+05
    1.1816986650e-01    1.0122315625e+05
    1.1817989498e-01    1.0122314844e+05
    1.1818993092e-01    1.0122314844e+05
    1.1819996685e-01    1.0122313281e+05
    1.1820969731e-01    1.0122312500e+05
    1.1821973324e-01    1.0122311719e+05
    1.1822976917e-01    1.0122310156e+05
    1.1823980510e-01    1.0122310156e+05
    1.1824984103e-01    1.0122309375e+05
    1.1825987697e-01    1.0122309375e+05
    1.1826991290e-01    1.0122308594e+05
    1.1827994883e-01    1.0122308594e+05
    1.1828998476e-01    1.0122307031e+05
    1.1829971522e-01    1.0122306250e+05
    1.1830975115e-01    1.0122306250e+05
    1.1831978709e-01    1.0122305469e+05
    1.1832982302e-01    1.0122303906e+05
    1.1833985150e-01    1.0122303906e+05
    1.1834988743e-01    1.0122303906e+05
    1.1835992336e-01    1.0122303906e+05
    1.1836995929e-01    1.0122303125e+05
    1.1837999523e-01    1.0122302344e+05
    1.1838972569e-01    1.0122302344e+05
    1.1839976162e-01    1.0122302344e+05
    1.1840979755e-01    1.0122300781e+05
    1.1841983348e-01    1.0122300000e+05
    1.1842986941e-01    1.0122299219e+05
    1.1843990535e-01    1.0122297656e+05
    1.1844994128e-01    1.0122297656e+05
    1.1845997721e-01    1.0122297656e+05
    1.1846970767e-01    1.0122296875e+05
    1.1847974360e-01    1.0122296094e+05
    1.1848977953e-01    1.0122296094e+05
    1.1849980801e-01    1.0122296094e+05
    1.1850984395e-01    1.0122294531e+05
    1.1851987988e-01    1.0122293750e+05
    1.1852991581e-01    1.0122293750e+05
    1.1853995174e-01    1.0122292969e+05
    1.1854998767e-01    1.0122291406e+05
    1.1855971813e-01    1.0122291406e+05
    1.1856975406e-01    1.0122291406e+05
    1.1857979000e-01    1.0122290625e+05
    1.1858982593e-01    1.0122289844e+05
    1.1859986186e-01    1.0122289844e+05
    1.1860989779e-01    1.0122289844e+05
    1.1861993372e-01    1.0122288281e+05
    1.1862996966e-01    1.0122287500e+05
    1.1863970011e-01    1.0122286719e+05
    1.1864973605e-01    1.0122285156e+05
    1.1865977198e-01    1.0122285156e+05
    1.1866980046e-01    1.0122285156e+05
    1.1867983639e-01    1.0122284375e+05
    1.1868987232e-01    1.0122283594e+05
    1.1869990826e-01    1.0122283594e+05
    1.1870994419e-01    1.0122283594e+05
    1.1871998012e-01    1.0122282031e+05
    1.1872971058e-01    1.0122282031e+05
    1.1873974651e-01    1.0122281250e+05
    1.1874978244e-01    1.0122280469e+05
    1.1875981838e-01    1.0122278906e+05
    1.1876985431e-01    1.0122278906e+05
    1.1877989024e-01    1.0122278906e+05
    1.1878992617e-01    1.0122278125e+05
    1.1879996210e-01    1.0122277344e+05
    1.1880999058e-01    1.0122277344e+05
    1.1881972849e-01    1.0122277344e+05
    1.1882975698e-01    1.0122275781e+05
    1.1883979291e-01    1.0122275000e+05
    1.1884982884e-01    1.0122275000e+05
    1.1885986477e-01    1.0122274219e+05
    1.1886990070e-01    1.0122272656e+05
    1.1887993664e-01    1.0122272656e+05
    1.1888997257e-01    1.0122272656e+05
    1.1889970303e-01    1.0122271875e+05
    1.1890973896e-01    1.0122271094e+05
    1.1891977489e-01    1.0122271094e+05
    1.1892981082e-01    1.0122271094e+05
    1.1893984675e-01    1.0122269531e+05
    1.1894988269e-01    1.0122268750e+05
    1.1895991862e-01    1.0122267969e+05
    1.1896994710e-01    1.0122267969e+05
    1.1897998303e-01    1.0122266406e+05
    1.1898971349e-01    1.0122266406e+05
    1.1899974942e-01    1.0122266406e+05
    1.1900978535e-01    1.0122265625e+05
    1.1901982129e-01    1.0122264844e+05
    1.1902985722e-01    1.0122264844e+05
    1.1903989315e-01    1.0122264844e+05
    1.1904992908e-01    1.0122263281e+05
    1.1905996501e-01    1.0122262500e+05
    1.1907000095e-01    1.0122261719e+05
    1.1907973140e-01    1.0122261719e+05
    1.1908976734e-01    1.0122260156e+05
    1.1909980327e-01    1.0122260156e+05
    1.1910983920e-01    1.0122259375e+05
    1.1911987513e-01    1.0122259375e+05
    1.1912990361e-01    1.0122258594e+05
    1.1913993955e-01    1.0122258594e+05
    1.1914997548e-01    1.0122258594e+05
    1.1915970594e-01    1.0122257031e+05
    1.1916974187e-01    1.0122256250e+05
    1.1917977780e-01    1.0122255469e+05
    1.1918981373e-01    1.0122255469e+05
    1.1919984967e-01    1.0122253906e+05
    1.1920988560e-01    1.0122253906e+05
    1.1921992153e-01    1.0122253125e+05
    1.1922995746e-01    1.0122253125e+05
    1.1923999339e-01    1.0122252344e+05
    1.1924972385e-01    1.0122252344e+05
    1.1925975978e-01    1.0122250781e+05
    1.1926979572e-01    1.0122250000e+05
    1.1927983165e-01    1.0122250000e+05
    1.1928986013e-01    1.0122249219e+05
    1.1929989606e-01    1.0122247656e+05
    1.1930993199e-01    1.0122247656e+05
    1.1931996793e-01    1.0122247656e+05
    1.1932969838e-01    1.0122246875e+05
    1.1933973432e-01    1.0122246094e+05
    1.1934977025e-01    1.0122246094e+05
    1.1935980618e-01    1.0122246094e+05
    1.1936984211e-01    1.0122244531e+05
    1.1937987804e-01    1.0122243750e+05
    1.1938991398e-01    1.0122243750e+05
    1.1939994991e-01    1.0122242969e+05
    1.1940998584e-01    1.0122241406e+05
    1.1941971630e-01    1.0122241406e+05
    1.1942975223e-01    1.0122241406e+05
    1.1943978816e-01    1.0122240625e+05
    1.1944982409e-01    1.0122239844e+05
    1.1945985258e-01    1.0122239844e+05
    1.1946988851e-01    1.0122239844e+05
    1.1947992444e-01    1.0122238281e+05
    1.1948996037e-01    1.0122237500e+05
    1.1949999630e-01    1.0122237500e+05
    1.1950972676e-01    1.0122236719e+05
    1.1951976269e-01    1.0122235156e+05
    1.1952979863e-01    1.0122235156e+05
    1.1953983456e-01    1.0122234375e+05
    1.1954987049e-01    1.0122234375e+05
    1.1955990642e-01    1.0122233594e+05
    1.1956994236e-01    1.0122233594e+05
    1.1957997829e-01    1.0122232031e+05
    1.1958970875e-01    1.0122232031e+05
    1.1959974468e-01    1.0122231250e+05
    1.1960978061e-01    1.0122230469e+05
    1.1961981654e-01    1.0122228906e+05
    1.1962984502e-01    1.0122228906e+05
    1.1963988096e-01    1.0122228906e+05
    1.1964991689e-01    1.0122228125e+05
    1.1965995282e-01    1.0122228125e+05
    1.1966998875e-01    1.0122227344e+05
    1.1967971921e-01    1.0122227344e+05
    1.1968975514e-01    1.0122227344e+05
    1.1969979107e-01    1.0122225781e+05
    1.1970982701e-01    1.0122225000e+05
    1.1971986294e-01    1.0122224219e+05
    1.1972989887e-01    1.0122224219e+05
    1.1973993480e-01    1.0122222656e+05
    1.1974997073e-01    1.0122222656e+05
    1.1975970119e-01    1.0122221875e+05
    1.1976973712e-01    1.0122221875e+05
    1.1977977306e-01    1.0122221094e+05
    1.1978980154e-01    1.0122221094e+05
    1.1979983747e-01    1.0122219531e+05
    1.1980987340e-01    1.0122219531e+05
    1.1981990933e-01    1.0122218750e+05
    1.1982994527e-01    1.0122217969e+05
    1.1983998120e-01    1.0122217969e+05
    1.1984971166e-01    1.0122216406e+05
    1.1985974759e-01    1.0122216406e+05
    1.1986978352e-01    1.0122215625e+05
    1.1987981945e-01    1.0122215625e+05
    1.1988985538e-01    1.0122214844e+05
    1.1989989132e-01    1.0122214844e+05
    1.1990992725e-01    1.0122213281e+05
    1.1991996318e-01    1.0122213281e+05
    1.1992999911e-01    1.0122212500e+05
    1.1993972957e-01    1.0122211719e+05
    1.1994976550e-01    1.0122211719e+05
    1.1995980144e-01    1.0122210156e+05
    1.1996982992e-01    1.0122210156e+05
    1.1997986585e-01    1.0122209375e+05
    1.1998990178e-01    1.0122209375e+05
    1.1999993771e-01    1.0122208594e+05
endcurve
