Curveplot
LS-DYNA keyword deck by LS-PrePost                          
Time
Pressure
Defined Connection
Pressure @ 9 #pts=12001
* Minval=     7.4303960938e+04 at time=         0.0125098443
* Maxval=     3.3155653125e+05 at time=         0.0044899788
    0.0000000000e+00    1.0120000000e+05
    9.9485332612e-06    1.0120000000e+05
    1.9897417587e-05    1.0120000000e+05
    2.9965654903e-05    1.0120000000e+05
    3.9993235987e-05    1.0120000000e+05
    4.9970469263e-05    1.0120000000e+05
    5.9997088101e-05    1.0120000000e+05
    6.9938905654e-05    1.0120000000e+05
    7.9998171714e-05    1.0120000000e+05
    8.9997971372e-05    1.0120000000e+05
    9.9941193184e-05    1.0120000000e+05
    1.0995503544e-04    1.0120000000e+05
    1.1995754903e-04    1.0120000000e+05
    1.2993908604e-04    1.0120000000e+05
    1.3996324560e-04    1.0120000000e+05
    1.4994938101e-04    1.0120000000e+05
    1.5996383445e-04    1.0120000000e+05
    1.6999975196e-04    1.0120000000e+05
    1.7997156829e-04    1.0120000000e+05
    1.8994933635e-04    1.0120000000e+05
    1.9992564921e-04    1.0120000000e+05
    2.0997671527e-04    1.0120000000e+05
    2.1993101109e-04    1.0120000000e+05
    2.2994846222e-04    1.0120000000e+05
    2.3993881769e-04    1.0120000000e+05
    2.4998307345e-04    1.0120000000e+05
    2.5998841738e-04    1.0120000000e+05
    2.6994713699e-04    1.0120000000e+05
    2.7994322591e-04    1.0120000000e+05
    2.8997304616e-04    1.0120000000e+05
    2.9993813951e-04    1.0120000000e+05
    3.0992369284e-04    1.0120000000e+05
    3.1991748256e-04    1.0120000000e+05
    3.2990993350e-04    1.0120000000e+05
    3.3999877633e-04    1.0120000000e+05
    3.4998691990e-04    1.0120000000e+05
    3.5996819497e-04    1.0120000000e+05
    3.6994065158e-04    1.0120000000e+05
    3.7990562851e-04    1.0120000000e+05
    3.8996143849e-04    1.0120000000e+05
    3.9990217192e-04    1.0120000000e+05
    4.0993242874e-04    1.0120000000e+05
    4.1994883213e-04    1.0120000000e+05
    4.2994925752e-04    1.0120000000e+05
    4.3993190047e-04    1.0120000000e+05
    4.4989326852e-04    1.0120000000e+05
    4.5994398533e-04    1.0120000000e+05
    4.6997389290e-04    1.0120000000e+05
    4.7998141963e-04    1.0120000000e+05
    4.8996444093e-04    1.0120000000e+05
    4.9992045388e-04    1.0120000000e+05
    5.0996377831e-04    1.0120000000e+05
    5.1997951232e-04    1.0120000000e+05
    5.2996590966e-04    1.0120000000e+05
    5.3991755703e-04    1.0120000000e+05
    5.4995674873e-04    1.0120000000e+05
    5.5996357696e-04    1.0120000000e+05
    5.6993565522e-04    1.0120000000e+05
    5.7999155251e-04    1.0120000000e+05
    5.8988988167e-04    1.0120000000e+05
    5.9999019140e-04    1.0120000000e+05
    6.0993165243e-04    1.0120000000e+05
    6.1995541910e-04    1.0120000000e+05
    6.2993745087e-04    1.0120000000e+05
    6.3987582689e-04    1.0120000000e+05
    6.4989581006e-04    1.0120000000e+05
    6.5999629442e-04    1.0120000000e+05
    6.6992430948e-04    1.0120000000e+05
    6.7993329139e-04    1.0120000000e+05
    6.8989273859e-04    1.0120000000e+05
    6.9993338548e-04    1.0120000000e+05
    7.0992251858e-04    1.0120000000e+05
    7.1998999920e-04    1.0120000000e+05
    7.2987086605e-04    1.0120000000e+05
    7.3996785795e-04    1.0120000000e+05
    7.4987101834e-04    1.0120000000e+05
    7.5999245746e-04    1.0120000000e+05
    7.6991564129e-04    1.0120000000e+05
    7.7991792932e-04    1.0120000000e+05
    7.8999710968e-04    1.0120000000e+05
    7.9987297067e-04    1.0120000000e+05
    8.0997153418e-04    1.0120000000e+05
    8.1985909492e-04    1.0120000000e+05
    8.2997116260e-04    1.0120000000e+05
    8.3986745449e-04    1.0120000000e+05
    8.4999029059e-04    1.0120000000e+05
    8.5989246145e-04    1.0120000000e+05
    8.6987140821e-04    1.0120000000e+05
    8.7992427871e-04    1.0120000000e+05
    8.8990561198e-04    1.0120000000e+05
    8.9996430324e-04    1.0120000000e+05
    9.0994476341e-04    1.0120000000e+05
    9.1984448954e-04    1.0120000000e+05
    9.2997855972e-04    1.0120000000e+05
    9.3987112632e-04    1.0120000000e+05
    9.4999984140e-04    1.0120000000e+05
    9.5988158137e-04    1.0120000000e+05
    9.6983747790e-04    1.0120000000e+05
    9.7986857872e-04    1.0120000000e+05
    9.8997051828e-04    1.0120000000e+05
    9.9998677615e-04    1.0120000000e+05
    1.0099095525e-03    1.0120000000e+05
    1.0199059034e-03    1.0120000000e+05
    1.0299766436e-03    1.0120000000e+05
    1.0399501771e-03    1.0120000000e+05
    1.0499971686e-03    1.0120000000e+05
    1.0599433444e-03    1.0120000000e+05
    1.0699621635e-03    1.0120000000e+05
    1.0798766743e-03    1.0120000000e+05
    1.0898628971e-03    1.0120000000e+05
    1.0999215301e-03    1.0120000000e+05
    1.1098717805e-03    1.0120000000e+05
    1.1198914144e-03    1.0120000000e+05
    1.1299792677e-03    1.0120000000e+05
    1.1399548966e-03    1.0120000000e+05
    1.1498212116e-03    1.0120000000e+05
    1.1599451536e-03    1.0120000000e+05
    1.1699526804e-03    1.0120000000e+05
    1.1798405321e-03    1.0120000000e+05
    1.1899897363e-03    1.0120000000e+05
    1.1998247355e-03    1.0120000000e+05
    1.2099228334e-03    1.0120000000e+05
    1.2198963668e-03    1.0120000000e+05
    1.2299395166e-03    1.0120000000e+05
    1.2398544932e-03    1.0120000000e+05
    1.2498380383e-03    1.0120000000e+05
    1.2598909670e-03    1.0120000000e+05
    1.2698112987e-03    1.0120000000e+05
    1.2797998497e-03    1.0120000000e+05
    1.2898576679e-03    1.0120000000e+05
    1.2999853352e-03    1.0120000000e+05
    1.3099752832e-03    1.0120000000e+05
    1.3198239030e-03    1.0120000000e+05
    1.3299507555e-03    1.0120000000e+05
    1.3399352320e-03    1.0120000000e+05
    1.3499881607e-03    1.0120000000e+05
    1.3598946389e-03    1.0120000000e+05
    1.3698681723e-03    1.0120000000e+05
    1.3799098087e-03    1.0120000000e+05
    1.3897999888e-03    1.0120000000e+05
    1.3999791117e-03    1.0120000000e+05
    1.4097819803e-03    1.0120000000e+05
    1.4198707649e-03    1.0120000000e+05
    1.4297966845e-03    1.0120000000e+05
    1.4397902414e-03    1.0120000000e+05
    1.4498521341e-03    1.0120000000e+05
    1.4599870192e-03    1.0120000000e+05
    1.4699620660e-03    1.0120000000e+05
    1.4797723852e-03    1.0120000000e+05
    1.4898842201e-03    1.0120000000e+05
    1.4998278348e-03    1.0120000000e+05
    1.5098387375e-03    1.0120000000e+05
    1.5199176269e-03    1.0120000000e+05
    1.5298230574e-03    1.0120000000e+05
    1.5397955431e-03    1.0120000000e+05
    1.5498350840e-03    1.0120000000e+05
    1.5599414473e-03    1.0120000000e+05
    1.5698655043e-03    1.0120000000e+05
    1.5798523091e-03    1.0120000000e+05
    1.5899061691e-03    1.0120000000e+05
    1.5997746959e-03    1.0120000000e+05
    1.6099695349e-03    1.0120000000e+05
    1.6199834645e-03    1.0120000000e+05
    1.6298061237e-03    1.0120000000e+05
    1.6399555607e-03    1.0120000000e+05
    1.6499122139e-03    1.0120000000e+05
    1.6599362716e-03    1.0120000000e+05
    1.6697623068e-03    1.0120000000e+05
    1.6799222212e-03    1.0120000000e+05
    1.6898830654e-03    1.0120000000e+05
    1.6999109648e-03    1.0120000000e+05
    1.7097342061e-03    1.0120000000e+05
    1.7198986607e-03    1.0120000000e+05
    1.7298565945e-03    1.0120000000e+05
    1.7398821656e-03    1.0120000000e+05
    1.7499765381e-03    1.0120000000e+05
    1.7598577542e-03    1.0120000000e+05
    1.7698060255e-03    1.0120000000e+05
    1.7798222834e-03    1.0120000000e+05
    1.7899076920e-03    1.0120000000e+05
    1.7997720279e-03    1.0120000000e+05
    1.8099967856e-03    1.0120000000e+05
    1.8199983751e-03    1.0120000000e+05
    1.8297719071e-03    1.0120000000e+05
    1.8399112159e-03    1.0120000000e+05
    1.8498200225e-03    1.0120000000e+05
    1.8597975140e-03    1.0120000000e+05
    1.8698439235e-03    1.0120000000e+05
    1.8799608806e-03    1.0120000000e+05
    1.8898396520e-03    1.0120000000e+05
    1.8997865263e-03    1.0120000000e+05
    1.9098026678e-03    1.0120000000e+05
    1.9198838854e-03    1.0120000000e+05
    1.9297184190e-03    1.0120000000e+05
    1.9399408484e-03    1.0120000000e+05
    1.9499200862e-03    1.0120000000e+05
    1.9599697553e-03    1.0120000000e+05
    1.9697637763e-03    1.0120000000e+05
    1.9799554721e-03    1.0120000000e+05
    1.9898889586e-03    1.0120000000e+05
    1.9998929929e-03    1.0120000000e+05
    2.0099685062e-03    1.0120000000e+05
    2.0197771955e-03    1.0120000000e+05
    2.0299970638e-03    1.0120000000e+05
    2.0399477798e-03    1.0120000000e+05
    2.0499699749e-03    1.0120000000e+05
    2.0597155672e-03    1.0120000000e+05
    2.0698821172e-03    1.0120000000e+05
    2.0797692705e-03    1.0120000000e+05
    2.0897279028e-03    1.0120000000e+05
    2.0997549873e-03    1.0120000000e+05
    2.1098579746e-03    1.0120000000e+05
    2.1196731832e-03    1.0120000000e+05
    2.1299272776e-03    1.0120000000e+05
    2.1398887038e-03    1.0120000000e+05
    2.1499241702e-03    1.0120000000e+05
    2.1596583538e-03    1.0120000000e+05
    2.1698423661e-03    1.0120000000e+05
    2.1797225345e-03    1.0120000000e+05
    2.1896760445e-03    1.0120000000e+05
    2.1997045260e-03    1.0120000000e+05
    2.2098091431e-03    1.0120000000e+05
    2.2199912928e-03    1.0120000000e+05
    2.2298565600e-03    1.0120000000e+05
    2.2397961002e-03    1.0120000000e+05
    2.2498068865e-03    1.0120000000e+05
    2.2599000949e-03    1.0120000000e+05
    2.2696636152e-03    1.0120000000e+05
    2.2799125873e-03    1.0120000000e+05
    2.2898288444e-03    1.0120000000e+05
    2.2998221684e-03    1.0120000000e+05
    2.3098939564e-03    1.0120000000e+05
    2.3196213879e-03    1.0120000000e+05
    2.3298519664e-03    1.0120000000e+05
    2.3397342302e-03    1.0120000000e+05
    2.3496891372e-03    1.0120000000e+05
    2.3596934043e-03    1.0120000000e+05
    2.3697388824e-03    1.0120000000e+05
    2.3798234761e-03    1.0120000000e+05
    2.3899418302e-03    1.0120000000e+05
    2.3996415548e-03    1.0120000000e+05
    2.4098197464e-03    1.0120000000e+05
    2.4199995678e-03    1.0120000000e+05
    2.4297465570e-03    1.0120000000e+05
    2.4399687536e-03    1.0120000000e+05
    2.4497311097e-03    1.0120000000e+05
    2.4599533062e-03    1.0120000000e+05
    2.4697093759e-03    1.0120000000e+05
    2.4799262173e-03    1.0120000000e+05
    2.4896732066e-03    1.0120000000e+05
    2.4998877198e-03    1.0120000000e+05
    2.5096540339e-03    1.0120000000e+05
    2.5198413059e-03    1.0120000000e+05
    2.5295945816e-03    1.0120000000e+05
    2.5397832505e-03    1.0120000000e+05
    2.5499647018e-03    1.0120000000e+05
    2.5597061031e-03    1.0120000000e+05
    2.5699154940e-03    1.0120000000e+05
    2.5796210393e-03    1.0120000000e+05
    2.5898148306e-03    1.0120000000e+05
    2.5999473874e-03    1.0120000000e+05
    2.6096343063e-03    1.0120000000e+05
    2.6198001578e-03    1.0120000000e+05
    2.6299306192e-03    1.0120000000e+05
    2.6396261528e-03    1.0120000000e+05
    2.6498641819e-03    1.0120000000e+05
    2.6595876552e-03    1.0120000000e+05
    2.6698284782e-03    1.0120000000e+05
    2.6796516031e-03    1.0120000000e+05
    2.6899143122e-03    1.0120000000e+05
    2.6997670066e-03    1.0120000000e+05
    2.7096134145e-03    1.0120000000e+05
    2.7199354954e-03    1.0120000000e+05
    2.7298140340e-03    1.0120000000e+05
    2.7397128288e-03    1.0120000000e+05
    2.7496218681e-03    1.0120000000e+05
    2.7599884197e-03    1.0120000000e+05
    2.7699102648e-03    1.0120000000e+05
    2.7798290830e-03    1.0120000000e+05
    2.7897504624e-03    1.0120000000e+05
    2.7996636927e-03    1.0120000000e+05
    2.8095704038e-03    1.0120000000e+05
    2.8198887594e-03    1.0120000000e+05
    2.8297516983e-03    1.0120000000e+05
    2.8395862319e-03    1.0120000000e+05
    2.8498277534e-03    1.0120000000e+05
    2.8595933691e-03    1.0120000000e+05
    2.8697554953e-03    1.0120000000e+05
    2.8798640706e-03    1.0120000000e+05
    2.8899055906e-03    1.0120000000e+05
    2.8998798225e-03    1.0120000000e+05
    2.9097918887e-03    1.0120000000e+05
    2.9196399264e-03    1.0120000000e+05
    2.9298493173e-03    1.0120000000e+05
    2.9399909545e-03    1.0120000000e+05
    2.9496471398e-03    1.0120000000e+05
    2.9596590903e-03    1.0120000000e+05
    2.9696037527e-03    1.0120000000e+05
    2.9798967298e-03    1.0120000000e+05
    2.9897133354e-03    1.0120000000e+05
    2.9998719692e-03    1.0120000000e+05
    3.0099633150e-03    1.0120000000e+05
    3.0199885368e-03    1.0120000000e+05
    3.0299478676e-03    1.0120000000e+05
    3.0398378149e-03    1.0120000000e+05
    3.0496679246e-03    1.0120000000e+05
    3.0598239973e-03    1.0120000000e+05
    3.0699118506e-03    1.0120000000e+05
    3.0799326487e-03    1.0120000000e+05
    3.0898868572e-03    1.0120000000e+05
    3.0997751746e-03    1.0120000000e+05
    3.1099719927e-03    1.0120000000e+05
    3.1197268981e-03    1.0120000000e+05
    3.1297896057e-03    1.0120000000e+05
    3.1397845596e-03    1.0120000000e+05
    3.1497110613e-03    1.0120000000e+05
    3.1599348877e-03    1.0120000000e+05
    3.1697254162e-03    1.0120000000e+05
    3.1798090786e-03    1.0120000000e+05
    3.1898221932e-03    1.0120000000e+05
    3.1997652259e-03    1.0120000000e+05
    3.2099904492e-03    1.0120000000e+05
    3.2197933178e-03    1.0120000000e+05
    3.2298741862e-03    1.0120000000e+05
    3.2398828771e-03    1.0120000000e+05
    3.2498193905e-03    1.0120000000e+05
    3.2596841920e-03    1.0120000000e+05
    3.2698139548e-03    1.0120000000e+05
    3.2798682805e-03    1.0120000000e+05
    3.2898476347e-03    1.0120000000e+05
    3.2997522503e-03    1.0120000000e+05
    3.3099090215e-03    1.0120000000e+05
    3.3199866302e-03    1.0120000000e+05
    3.3299860079e-03    1.0120000000e+05
    3.3399069216e-03    1.0120000000e+05
    3.3497498371e-03    1.0120000000e+05
    3.3598293085e-03    1.0120000000e+05
    3.3698265906e-03    1.0120000000e+05
    3.3797421493e-03    1.0120000000e+05
    3.3898821566e-03    1.0120000000e+05
    3.3999355510e-03    1.0120000000e+05
    3.4099023324e-03    1.0120000000e+05
    3.4197829664e-03    1.0120000000e+05
    3.4298731480e-03    1.0120000000e+05
    3.4398727585e-03    1.0120000000e+05
    3.4497813322e-03    1.0120000000e+05
    3.4598864149e-03    1.0120000000e+05
    3.4698951058e-03    1.0120000000e+05
    3.4798078705e-03    1.0120000000e+05
    3.4899029415e-03    1.0120000000e+05
    3.4998964984e-03    1.0120000000e+05
    3.5097880755e-03    1.0120000000e+05
    3.5198479891e-03    1.0120000000e+05
    3.5297991708e-03    1.0120000000e+05
    3.5399063490e-03    1.0120000000e+05
    3.5498987418e-03    1.0120000000e+05
    3.5597754177e-03    1.0120000000e+05
    3.5697917920e-03    1.0120000000e+05
    3.5799371544e-03    1.0120000000e+05
    3.5899523646e-03    1.0120000000e+05
    3.5998362582e-03    1.0120000000e+05
    3.6098300479e-03    1.0120000000e+05
    3.6199225578e-03    1.0120000000e+05
    3.6298658233e-03    1.0120000000e+05
    3.6398903467e-03    1.0120000000e+05
    3.6499823909e-03    1.0120000000e+05
    3.6599047016e-03    1.0120000000e+05
    3.6698740441e-03    1.0120000000e+05
    3.6798750516e-03    1.0120000000e+05
    3.6898914259e-03    1.0120000000e+05
    3.6999052390e-03    1.0120000000e+05
    3.7098969333e-03    1.0120000000e+05
    3.7198457867e-03    1.0120000000e+05
    3.7299192045e-03    1.0120000000e+05
    3.7398890126e-03    1.0120000000e+05
    3.7499042228e-03    1.0120000000e+05
    3.7599098869e-03    1.0120000000e+05
    3.7698426750e-03    1.0120000000e+05
    3.7799389102e-03    1.0120000000e+05
    3.7899001036e-03    1.0120000000e+05
    3.7999630440e-03    1.0120000000e+05
    3.8099947851e-03    1.0120000000e+05
    3.8199734408e-03    1.0120000000e+05
    3.8299588487e-03    1.0120000000e+05
    3.8399540354e-03    1.0120000000e+05
    3.8499657530e-03    1.0120000000e+05
    3.8599607069e-03    1.0120000000e+05
    3.8699628785e-03    1.0120000000e+05
    3.8798961323e-03    1.0120000000e+05
    3.8899073843e-03    1.0120000000e+05
    3.8999414537e-03    1.0120000000e+05
    3.9099147543e-03    1.0120000000e+05
    3.9198254235e-03    1.0120000000e+05
    3.9299083874e-03    1.0120000000e+05
    3.9399615489e-03    1.0120000000e+05
    3.9499416016e-03    1.0120000000e+05
    3.9598322473e-03    1.0120000000e+05
    3.9698611945e-03    1.0120000000e+05
    3.9799828082e-03    1.0120000000e+05
    3.9899968542e-03    1.0120000000e+05
    3.9999242872e-03    1.0120000000e+05
    4.0099401958e-03    1.0120000000e+05
    4.0198336355e-03    1.0120000000e+05
    4.0299803950e-03    1.0120000000e+05
    4.0398202837e-03    1.0120000000e+05
    4.0499251336e-03    1.0120000000e+05
    4.0598982014e-03    1.0120000000e+05
    4.0699224919e-03    1.0120000000e+05
    4.0798187256e-03    1.0120000000e+05
    4.0899459273e-03    1.0120000000e+05
    4.0999464691e-03    1.0120000000e+05
    4.1099810041e-03    1.0120000000e+05
    4.1198888794e-03    1.0120000000e+05
    4.1298177093e-03    1.0120000000e+05
    4.1398177855e-03    1.0120000000e+05
    4.1498411447e-03    1.0120000000e+05
    4.1599273682e-03    1.0120000000e+05
    4.1698399000e-03    1.0120000000e+05
    4.1799992323e-03    1.0120000000e+05
    4.1897986084e-03    1.0120000000e+05
    4.1998233646e-03    1.0120000000e+05
    4.2099161074e-03    1.0120000000e+05
    4.2198006995e-03    1.0120000000e+05
    4.2299716733e-03    1.0120000000e+05
    4.2399358936e-03    1.0120000000e+05
    4.2499466799e-03    1.0120000000e+05
    4.2597847059e-03    1.0120000000e+05
    4.2698513716e-03    1.0120000000e+05
    4.2799981311e-03    1.0120000000e+05
    4.2899069376e-03    1.0120000000e+05
    4.2999037541e-03    1.0120000000e+05
    4.3098842725e-03    1.0120000000e+05
    4.3199118227e-03    1.0120000000e+05
    4.3297894299e-03    1.0120000000e+05
    4.3398393318e-03    1.0120000000e+05
    4.3497923762e-03    1.0120000000e+05
    4.3599070050e-03    1.0120000000e+05
    4.3698814698e-03    1.0120000000e+05
    4.3798885308e-03    1.0120000000e+05
    4.3898792937e-03    1.0120000000e+05
    4.3999650516e-03    1.0120000000e+05
    4.4098068029e-03    1.0120000000e+05
    4.4199284166e-03    1.0120000000e+05
    4.4298497960e-03    1.0120000000e+05
    4.4397911988e-03    1.0120000000e+05
    4.4497852214e-03    1.0120000000e+05
    4.4597857632e-03    1.0120000000e+05
    4.4698179699e-03    1.0120000000e+05
    4.4798892923e-03    1.1393393750e+05
    4.4899787754e-03    3.3155653125e+05
    4.4998647645e-03    3.2938300000e+05
    4.5097707771e-03    3.2713762500e+05
    4.5199431479e-03    3.2486184375e+05
    4.5299059711e-03    3.2265859375e+05
    4.5398836955e-03    3.2047706250e+05
    4.5498856343e-03    3.1831562500e+05
    4.5599122532e-03    3.1617440625e+05
    4.5699570328e-03    3.1405328125e+05
    4.5797904022e-03    3.1200043750e+05
    4.5898742974e-03    3.0991887500e+05
    4.5999726281e-03    3.0785862500e+05
    4.6098600142e-03    3.0586437500e+05
    4.6197650954e-03    3.0388846875e+05
    4.6299207024e-03    3.0188540625e+05
    4.6398532577e-03    2.9994837500e+05
    4.6498007141e-03    2.9802987500e+05
    4.6597616747e-03    2.9613028125e+05
    4.6699740924e-03    2.9420453125e+05
    4.6799634583e-03    2.9234162500e+05
    4.6899626032e-03    2.9049781250e+05
    4.6999715269e-03    2.8867281250e+05
    4.7099888325e-03    2.8686668750e+05
    4.7197788954e-03    2.8512059375e+05
    4.7298148274e-03    2.8334956250e+05
    4.7398568131e-03    2.8159656250e+05
    4.7499020584e-03    2.7986200000e+05
    4.7599505633e-03    2.7814568750e+05
    4.7697625123e-03    2.7648778125e+05
    4.7798142768e-03    2.7480753125e+05
    4.7898660414e-03    2.7314531250e+05
    4.7999182716e-03    2.7150087500e+05
    4.8099709675e-03    2.6987403125e+05
    4.8197843134e-03    2.6830281250e+05
    4.8298370093e-03    2.6671040625e+05
    4.8398897052e-03    2.6513525000e+05
    4.8499419354e-03    2.6357700000e+05
    4.8599941656e-03    2.6203529688e+05
    4.8698065802e-03    2.6054564062e+05
    4.8798578791e-03    2.5903510938e+05
    4.8899091780e-03    2.5754007812e+05
    4.8999595456e-03    2.5606067188e+05
    4.9097705632e-03    2.5463157812e+05
    4.9198199995e-03    2.5318307812e+05
    4.9298689701e-03    2.5174992188e+05
    4.9399170093e-03    2.5033179688e+05
    4.9499650486e-03    2.4892842188e+05
    4.9597728066e-03    2.4757242188e+05
    4.9698194489e-03    2.4619739062e+05
    4.9798646942e-03    2.4483639062e+05
    4.9899099395e-03    2.4348923438e+05
    4.9999533221e-03    2.4215589062e+05
    5.0099957734e-03    2.4083612500e+05
    5.0197984092e-03    2.3956070312e+05
    5.0298385322e-03    2.3826745312e+05
    5.0398791209e-03    2.3698726562e+05
    5.0499187782e-03    2.3572001562e+05
    5.0599616952e-03    2.3446500000e+05
    5.0697680563e-03    2.3325154688e+05
    5.0798184238e-03    2.3201995312e+05
    5.0898757763e-03    2.3079957812e+05
    5.0999396481e-03    2.2959067188e+05
    5.1097702235e-03    2.2842131250e+05
    5.1198536530e-03    2.2723367188e+05
    5.1299445331e-03    2.2605667188e+05
    5.1398007199e-03    2.2491829688e+05
    5.1499074325e-03    2.2376235938e+05
    5.1597831771e-03    2.2264370312e+05
    5.1699043252e-03    2.2150807812e+05
    5.1797926426e-03    2.2040918750e+05
    5.1899333484e-03    2.1929300000e+05
    5.1998398267e-03    2.1821289062e+05
    5.2099945024e-03    2.1711625000e+05
    5.2199158818e-03    2.1605500000e+05
    5.2298489027e-03    2.1500257812e+05
    5.2397828549e-03    2.1396014062e+05
    5.2499682643e-03    2.1290142188e+05
    5.2599203773e-03    2.1187687500e+05
    5.2698794752e-03    2.1086118750e+05
    5.2798399702e-03    2.0985482812e+05
    5.2898144349e-03    2.0885657812e+05
    5.2997968160e-03    2.0786670312e+05
    5.3097819909e-03    2.0688557812e+05
    5.3197699599e-03    2.0591295312e+05
    5.3297742270e-03    2.0494767188e+05
    5.3397812881e-03    2.0399095312e+05
    5.3497878835e-03    2.0304314062e+05
    5.3598061204e-03    2.0210304688e+05
    5.3698332049e-03    2.0117068750e+05
    5.3798621520e-03    2.0024692188e+05
    5.3898924962e-03    1.9933154688e+05
    5.3999456577e-03    1.9842262500e+05
    5.4099904373e-03    1.9752245312e+05
    5.4197991267e-03    1.9665106250e+05
    5.4298550822e-03    1.9576550000e+05
    5.4399301298e-03    1.9488618750e+05
    5.4499888793e-03    1.9401631250e+05
    5.4598250426e-03    1.9317332812e+05
    5.4699108005e-03    1.9231668750e+05
    5.4797581397e-03    1.9148751562e+05
    5.4898355156e-03    1.9064645312e+05
    5.4999459535e-03    1.8981001562e+05
    5.5098114535e-03    1.8900114062e+05
    5.5199218914e-03    1.8817954688e+05
    5.5297780782e-03    1.8738579688e+05
    5.5399043486e-03    1.8657750000e+05
    5.5497912690e-03    1.8579504688e+05
    5.5599212646e-03    1.8500017188e+05
    5.5698035285e-03    1.8423125000e+05
    5.5799479596e-03    1.8344879688e+05
    5.5898525752e-03    1.8269137500e+05
    5.5997571908e-03    1.8194057812e+05
    5.6099160574e-03    1.8117723438e+05
    5.6198365055e-03    1.8043832812e+05
    5.6297616102e-03    1.7970529688e+05
    5.6399391033e-03    1.7895993750e+05
    5.6498693302e-03    1.7823882812e+05
    5.6598070078e-03    1.7752318750e+05
    5.6697549298e-03    1.7681292188e+05
    5.6799557060e-03    1.7609079688e+05
    5.6899068877e-03    1.7539243750e+05
    5.6998594664e-03    1.7469964062e+05
    5.7098274119e-03    1.7401160938e+05
    5.7198014110e-03    1.7332873438e+05
    5.7297758758e-03    1.7265157812e+05
    5.7399924845e-03    1.7196381250e+05
    5.7499748655e-03    1.7129759375e+05
    5.7599656284e-03    1.7063621875e+05
    5.7699638419e-03    1.6997973438e+05
    5.7799569331e-03    1.6932903125e+05
    5.7899542153e-03    1.6868345312e+05
    5.7999570854e-03    1.6804287500e+05
    5.8099725284e-03    1.6740660938e+05
    5.8199861087e-03    1.6677548438e+05
    5.8297519572e-03    1.6616479688e+05
    5.8397692628e-03    1.6554343750e+05
    5.8497982100e-03    1.6492656250e+05
    5.8598308824e-03    1.6431471875e+05
    5.8698654175e-03    1.6370775000e+05
    5.8798966929e-03    1.6310584375e+05
    5.8899368159e-03    1.6250789062e+05
    5.8999899775e-03    1.6191378125e+05
    5.9097995982e-03    1.6133853125e+05
    5.9198616073e-03    1.6075332812e+05
    5.9299189597e-03    1.6017332812e+05
    5.9399702586e-03    1.5959860938e+05
    5.9497803450e-03    1.5904207812e+05
    5.9598544613e-03    1.5847493750e+05
    5.9699327685e-03    1.5791184375e+05
    5.9797568247e-03    1.5736714062e+05
    5.9898300096e-03    1.5681296875e+05
    5.9999013320e-03    1.5626334375e+05
    6.0099712573e-03    1.5571814062e+05
    6.0197901912e-03    1.5519065625e+05
    6.0298698954e-03    1.5465323438e+05
    6.0399570502e-03    1.5411956250e+05
    6.0497899540e-03    1.5360332812e+05
    6.0598724522e-03    1.5307809375e+05
    6.0699535534e-03    1.5255704688e+05
    6.0797818005e-03    1.5205298438e+05
    6.0898619704e-03    1.5153992188e+05
    6.0999416746e-03    1.5103081250e+05
    6.1097699217e-03    1.5053814062e+05
    6.1198510230e-03    1.5003660938e+05
    6.1299335212e-03    1.4953890625e+05
    6.1397659592e-03    1.4905725000e+05
    6.1498526484e-03    1.4856685938e+05
    6.1599388719e-03    1.4808017188e+05
    6.1697722413e-03    1.4760918750e+05
    6.1798561364e-03    1.4712971875e+05
    6.1899395660e-03    1.4665385938e+05
    6.1997701414e-03    1.4619335938e+05
    6.2098531052e-03    1.4572453125e+05
    6.2199360691e-03    1.4525925000e+05
    6.2297666445e-03    1.4480901562e+05
    6.2398486771e-03    1.4435070312e+05
    6.2499307096e-03    1.4389589062e+05
    6.2597603537e-03    1.4345575000e+05
    6.2698419206e-03    1.4300765625e+05
    6.2799230218e-03    1.4256285938e+05
    6.2897522002e-03    1.4213226562e+05
    6.2998333015e-03    1.4169378125e+05
    6.3099139370e-03    1.4125848438e+05
    6.3199945726e-03    1.4082640625e+05
    6.3298237510e-03    1.4040825000e+05
    6.3399062492e-03    1.3998248438e+05
    6.3499887474e-03    1.3955981250e+05
    6.3598183915e-03    1.3915060938e+05
    6.3698990270e-03    1.3873390625e+05
    6.3799787313e-03    1.3832026562e+05
    6.3898051158e-03    1.3791998438e+05
    6.3998834230e-03    1.3751243750e+05
    6.4099612646e-03    1.3710782812e+05
    6.4197881147e-03    1.3671601562e+05
    6.4298678190e-03    1.3631689062e+05
    6.4399493858e-03    1.3592057812e+05
    6.4497790299e-03    1.3553695312e+05
    6.4598610625e-03    1.3514632812e+05
    6.4699430950e-03    1.3475850000e+05
    6.4797722735e-03    1.3438298438e+05
    6.4898524433e-03    1.3400051562e+05
    6.4999312162e-03    1.3362075000e+05
    6.5097576007e-03    1.3325310938e+05
    6.5198345110e-03    1.3287876562e+05
    6.5299137495e-03    1.3250696875e+05
    6.5399990417e-03    1.3213754688e+05
    6.5498333424e-03    1.3177976562e+05
    6.5599181689e-03    1.3141542188e+05
    6.5697501414e-03    1.3106267969e+05
    6.5798335709e-03    1.3070342969e+05
    6.5899160691e-03    1.3034671875e+05
    6.5997503698e-03    1.3000122656e+05
    6.6098398529e-03    1.2964919531e+05
    6.6199284047e-03    1.2929958594e+05
    6.6297636367e-03    1.2896096094e+05
    6.6398503259e-03    1.2861596094e+05
    6.6499360837e-03    1.2827339844e+05
    6.6597727127e-03    1.2794166406e+05
    6.6698649898e-03    1.2760378125e+05
    6.6799563356e-03    1.2726830469e+05
    6.6897938959e-03    1.2694335156e+05
    6.6998833790e-03    1.2661218750e+05
    6.7099737935e-03    1.2628310156e+05
    6.7198164761e-03    1.2596425000e+05
    6.7299106158e-03    1.2563955469e+05
    6.7397519015e-03    1.2532527344e+05
    6.7498446442e-03    1.2500518750e+05
    6.7599378526e-03    1.2468725781e+05
    6.7697823979e-03    1.2437913281e+05
    6.7798793316e-03    1.2406510156e+05
    6.7899753340e-03    1.2375313281e+05
    6.7998184822e-03    1.2345103906e+05
    6.8099154159e-03    1.2314332031e+05
    6.8197618239e-03    1.2284530469e+05
    6.8298596889e-03    1.2254162500e+05
    6.8399575539e-03    1.2223975781e+05
    6.8498025648e-03    1.2194712500e+05
    6.8599022925e-03    1.2164888281e+05
    6.8697487004e-03    1.2136031250e+05
    6.8798474967e-03    1.2106678906e+05
    6.8899458274e-03    1.2077560156e+05
    6.8997936323e-03    1.2049338281e+05
    6.9098938257e-03    1.2020508594e+05
    6.9199935533e-03    1.1991766406e+05
    6.9298399612e-03    1.1963862500e+05
    6.9399406202e-03    1.1935458594e+05
    6.9497884251e-03    1.1908089844e+05
    6.9598886184e-03    1.1880408594e+05
    6.9699883461e-03    1.1853050781e+05
    6.9798366167e-03    1.1826500000e+05
    6.9899368100e-03    1.1799177344e+05
    6.9997841492e-03    1.1772341406e+05
    7.0098838769e-03    1.1744711719e+05
    7.0199840702e-03    1.1717241406e+05
    7.0298309438e-03    1.1690922656e+05
    7.0399302058e-03    1.1664636719e+05
    7.0497770794e-03    1.1639717969e+05
    7.0598768070e-03    1.1614632031e+05
    7.0699760690e-03    1.1589528906e+05
    7.0798224770e-03    1.1564564844e+05
    7.0899217390e-03    1.1538275000e+05
    7.0997681469e-03    1.1512189844e+05
    7.1098664775e-03    1.1485428906e+05
    7.1199648082e-03    1.1459141406e+05
    7.1298107505e-03    1.1434310156e+05
    7.1399081498e-03    1.1409853906e+05
    7.1497536264e-03    1.1386981250e+05
    7.1598524228e-03    1.1364215625e+05
    7.1699516848e-03    1.1341552344e+05
    7.1797976270e-03    1.1318902344e+05
    7.1898959577e-03    1.1294740625e+05
    7.1999933571e-03    1.1269781250e+05
    7.2098379023e-03    1.1245128906e+05
    7.2199343704e-03    1.1219978906e+05
    7.2297793813e-03    1.1195861719e+05
    7.2398777120e-03    1.1171643750e+05
    7.2499779053e-03    1.1147978125e+05
    7.2598252445e-03    1.1125449219e+05
    7.2699245065e-03    1.1102896094e+05
    7.2797709145e-03    1.1081400781e+05
    7.2898697108e-03    1.1059735156e+05
    7.2999680415e-03    1.1038266406e+05
    7.3098139837e-03    1.1017324219e+05
    7.3199123144e-03    1.0995694531e+05
    7.3297582567e-03    1.0974440625e+05
    7.3398561217e-03    1.0952553906e+05
    7.3499539867e-03    1.0930694531e+05
    7.3597989976e-03    1.0909478906e+05
    7.3698963970e-03    1.0887816406e+05
    7.3799928650e-03    1.0866188281e+05
    7.3898369446e-03    1.0845077344e+05
    7.3999334127e-03    1.0823396094e+05
    7.4097770266e-03    1.0802280469e+05
    7.4198734947e-03    1.0780733594e+05
    7.4299704283e-03    1.0759372656e+05
    7.4398191646e-03    1.0738782031e+05
    7.4499235488e-03    1.0717958594e+05
    7.4597755447e-03    1.0697971875e+05
    7.4698794633e-03    1.0677793750e+05
    7.4799833819e-03    1.0657888281e+05
    7.4898335151e-03    1.0638664844e+05
    7.4999360368e-03    1.0619058594e+05
    7.5097857043e-03    1.0599992969e+05
    7.5198877603e-03    1.0580466406e+05
    7.5299926102e-03    1.0560958594e+05
    7.5398446061e-03    1.0541975000e+05
    7.5499494560e-03    1.0522580469e+05
    7.5598005205e-03    1.0503788281e+05
    7.5699039735e-03    1.0484664844e+05
    7.5797545724e-03    1.0466165625e+05
    7.5898580253e-03    1.0447321875e+05
    7.5999614783e-03    1.0428585156e+05
    7.6098125428e-03    1.0410408594e+05
    7.6199164614e-03    1.0391853906e+05
    7.6297679916e-03    1.0373858594e+05
    7.6398728415e-03    1.0355503906e+05
    7.6499790885e-03    1.0337253125e+05
    7.6598338783e-03    1.0319555469e+05
    7.6699433848e-03    1.0301508594e+05
    7.6798046939e-03    1.0284005469e+05
    7.6899258420e-03    1.0266133594e+05
    7.6997959986e-03    1.0248771094e+05
    7.7099222690e-03    1.0231010156e+05
    7.7198049985e-03    1.0213725781e+05
    7.7299531549e-03    1.0196016406e+05
    7.7398545109e-03    1.0178789844e+05
    7.7497567981e-03    1.0161628906e+05
    7.7599203214e-03    1.0144093750e+05
    7.7698430978e-03    1.0127053906e+05
    7.7797756530e-03    1.0110093750e+05
    7.7899657190e-03    1.0092844531e+05
    7.7999047935e-03    1.0076239844e+05
    7.8098527156e-03    1.0059878125e+05
    7.8198136762e-03    1.0043763281e+05
    7.8297834843e-03    1.0027878125e+05
    7.8397532925e-03    1.0012200000e+05
    7.8499857336e-03    9.9962710938e+04
    7.8599732369e-03    9.9807992188e+04
    7.8699737787e-03    9.9652968750e+04
    7.8799799085e-03    9.9497023438e+04
    7.8899813816e-03    9.9340062500e+04
    7.8999903053e-03    9.9182304688e+04
    7.9097570851e-03    9.9028492188e+04
    7.9197930172e-03    9.8871343750e+04
    7.9298308119e-03    9.8715632812e+04
    7.9398648813e-03    9.8561507812e+04
    7.9499101266e-03    9.8408320312e+04
    7.9599702731e-03    9.8255476562e+04
    7.9697817564e-03    9.8106500000e+04
    7.9798484221e-03    9.7953593750e+04
    7.9899122939e-03    9.7800929688e+04
    7.9999901354e-03    9.7648742188e+04
    8.0098249018e-03    9.7501617188e+04
    8.0199223012e-03    9.7352695312e+04
    8.0297598615e-03    9.7210273438e+04
    8.0398609862e-03    9.7067125000e+04
    8.0499695614e-03    9.6926851562e+04
    8.0598304048e-03    9.6792156250e+04
    8.0699538812e-03    9.6654585938e+04
    8.0798147246e-03    9.6519531250e+04
    8.0899456516e-03    9.6378335938e+04
    8.0998288468e-03    9.6237679688e+04
    8.1099737436e-03    9.6091101562e+04
    8.1198625267e-03    9.5947710938e+04
    8.1297568977e-03    9.5805406250e+04
    8.1399157643e-03    9.5662070312e+04
    8.1498268992e-03    9.5525757812e+04
    8.1597408280e-03    9.5393148438e+04
    8.1699145958e-03    9.5260617188e+04
    8.1798341125e-03    9.5133867188e+04
    8.1897648051e-03    9.5007945312e+04
    8.1999609247e-03    9.4878023438e+04
    8.2098990679e-03    9.4749562500e+04
    8.2198427990e-03    9.4618945312e+04
    8.2297893241e-03    9.4486679688e+04
    8.2397432998e-03    9.4353679688e+04
    8.2499692217e-03    9.4217523438e+04
    8.2599259913e-03    9.4086289062e+04
    8.2698911428e-03    9.3957062500e+04
    8.2798674703e-03    9.3830273438e+04
    8.2898447290e-03    9.3706382812e+04
    8.2998313010e-03    9.3585257812e+04
    8.3098225296e-03    9.3466312500e+04
    8.3198081702e-03    9.3348367188e+04
    8.3298059180e-03    9.3229382812e+04
    8.3398139104e-03    9.3107664062e+04
    8.3498228341e-03    9.2982781250e+04
    8.3598382771e-03    9.2855570312e+04
    8.3698565140e-03    9.2728289062e+04
    8.3798747510e-03    9.2603460938e+04
    8.3899004385e-03    9.2482726562e+04
    8.3999345079e-03    9.2366585938e+04
    8.4099676460e-03    9.2254320312e+04
    8.4197437391e-03    9.2146835938e+04
    8.4297908470e-03    9.2035781250e+04
    8.4398332983e-03    9.1921898438e+04
    8.4498832002e-03    9.1804093750e+04
    8.4599461406e-03    9.1683179688e+04
    8.4697399288e-03    9.1564867188e+04
    8.4798065946e-03    9.1445312500e+04
    8.4898807108e-03    9.1329742188e+04
    8.4999455139e-03    9.1219031250e+04
    8.5097569972e-03    9.1114960938e+04
    8.5198460147e-03    9.1009945312e+04
    8.5299303755e-03    9.0904507812e+04
    8.5397567600e-03    9.0799164062e+04
    8.5498578846e-03    9.0687179688e+04
    8.5599496961e-03    9.0572289062e+04
    8.5697872564e-03    9.0459585938e+04
    8.5799014196e-03    9.0345789062e+04
    8.5897436365e-03    9.0239335938e+04
    8.5998596624e-03    9.0134976562e+04
    8.6099840701e-03    9.0034476562e+04
    8.6198365316e-03    8.9937914062e+04
    8.6299618706e-03    8.9836804688e+04
    8.6398348212e-03    8.9734312500e+04
    8.6499685422e-03    8.9625062500e+04
    8.6598424241e-03    8.9516726562e+04
    8.6699947715e-03    8.9406773438e+04
    8.6798733100e-03    8.9304093750e+04
    8.6897537112e-03    8.9206851562e+04
    8.6999135092e-03    8.9111367188e+04
    8.7098004296e-03    8.9019710938e+04
    8.7199583650e-03    8.8923164062e+04
    8.7298648432e-03    8.8824648438e+04
    8.7397657335e-03    8.8722437500e+04
    8.7499376386e-03    8.8616226562e+04
    8.7598552927e-03    8.8514750000e+04
    8.7697682902e-03    8.8417664062e+04
    8.7799485773e-03    8.8323062500e+04
    8.7898774073e-03    8.8234312500e+04
    8.7998053059e-03    8.8145898438e+04
    8.8099995628e-03    8.8052054688e+04
    8.8199358433e-03    8.7956195312e+04
    8.8298674673e-03    8.7857414062e+04
    8.8397990912e-03    8.7758929688e+04
    8.8497446850e-03    8.7663695312e+04
    8.8599622250e-03    8.7570914062e+04
    8.8699115440e-03    8.7484835938e+04
    8.8798683137e-03    8.7400273438e+04
    8.8898232207e-03    8.7314000000e+04
    8.8997771963e-03    8.7223734375e+04
    8.9097432792e-03    8.7129671875e+04
    8.9199822396e-03    8.7032171875e+04
    8.9299511164e-03    8.6939976562e+04
    8.9399255812e-03    8.6852468750e+04
    8.9499028400e-03    8.6769273438e+04
    8.9598782361e-03    8.6687953125e+04
    8.9698601514e-03    8.6605156250e+04
    8.9798467234e-03    8.6518765625e+04
    8.9898379520e-03    8.6429054688e+04
    8.9998347685e-03    8.6338414062e+04
    9.0098353103e-03    8.6249992188e+04
    9.0198311955e-03    8.6165867188e+04
    9.0298326686e-03    8.6085703125e+04
    9.0398387983e-03    8.6007085938e+04
    9.0498477221e-03    8.5927015625e+04
    9.0598631650e-03    8.5843671875e+04
    9.0698851272e-03    8.5757507812e+04
    9.0799080208e-03    8.5670953125e+04
    9.0899309143e-03    8.5586914062e+04
    9.0999566019e-03    8.5506937500e+04
    9.1099813581e-03    8.5430226562e+04
    9.1197406873e-03    8.5356234375e+04
    9.1297775507e-03    8.5278210938e+04
    9.1398162767e-03    8.5197195312e+04
    9.1498605907e-03    8.5114351562e+04
    9.1599086300e-03    8.5032250000e+04
    9.1699585319e-03    8.4953117188e+04
    9.1797374189e-03    8.4879359375e+04
    9.1897919774e-03    8.4805421875e+04
    9.1998502612e-03    8.4731054688e+04
    9.2099122703e-03    8.4654539062e+04
    9.2199789360e-03    8.4575843750e+04
    9.2297736555e-03    8.4498867188e+04
    9.2398440465e-03    8.4421546875e+04
    9.2499172315e-03    8.4347203125e+04
    9.2599932104e-03    8.4275140625e+04
    9.2697991058e-03    8.4205421875e+04
    9.2798834667e-03    8.4132367188e+04
    9.2899715528e-03    8.4057320312e+04
    9.2997886240e-03    8.3983539062e+04
    9.3098822981e-03    8.3908835938e+04
    9.3199806288e-03    8.3836500000e+04
    9.3298088759e-03    8.3768109375e+04
    9.3399118632e-03    8.3698453125e+04
    9.3497438356e-03    8.3629882812e+04
    9.3598542735e-03    8.3558125000e+04
    9.3699684367e-03    8.3485718750e+04
    9.3798125163e-03    8.3415843750e+04
    9.3899331987e-03    8.3345726562e+04
    9.3997828662e-03    8.3279210938e+04
    9.4099100679e-03    8.3211609375e+04
    9.4197662547e-03    8.3145492188e+04
    9.4298981130e-03    8.3076695312e+04
    9.4397608191e-03    8.3009078125e+04
    9.4499029219e-03    8.2939656250e+04
    9.4597740099e-03    8.2873312500e+04
    9.4699207693e-03    8.2806875000e+04
    9.4797955826e-03    8.2743078125e+04
    9.4899497926e-03    8.2677117188e+04
    9.4998329878e-03    8.2612210938e+04
    9.5099927858e-03    8.2545234375e+04
    9.5198815688e-03    8.2480656250e+04
    9.5297759399e-03    8.2417343750e+04
    9.5399506390e-03    8.2353445312e+04
    9.5498505980e-03    8.2291640625e+04
    9.5597524196e-03    8.2229757812e+04
    9.5699327067e-03    8.2165984375e+04
    9.5798438415e-03    8.2103789062e+04
    9.5897587016e-03    8.2041781250e+04
    9.5999520272e-03    8.1978875000e+04
    9.6098752692e-03    8.1918687500e+04
    9.6198022366e-03    8.1859039062e+04
    9.6297310665e-03    8.1799242188e+04
    9.6399355680e-03    8.1737406250e+04
    9.6498699859e-03    8.1677273438e+04
    9.6598109230e-03    8.1617796875e+04
    9.6697546542e-03    8.1559226562e+04
    9.6799759194e-03    8.1499460938e+04
    9.6899280325e-03    8.1441335938e+04
    9.6998829395e-03    8.1383468750e+04
    9.7098415717e-03    8.1325781250e+04
    9.7198020667e-03    8.1268187500e+04
    9.7297634929e-03    8.1211007812e+04
    9.7397305071e-03    8.1154382812e+04
    9.7499806434e-03    8.1096671875e+04
    9.7599588335e-03    8.1040765625e+04
    9.7699416801e-03    8.0984765625e+04
    9.7799329087e-03    8.0928890625e+04
    9.7899287939e-03    8.0873554688e+04
    9.7999274731e-03    8.0818656250e+04
    9.8099233583e-03    8.0764000000e+04
    9.8199192435e-03    8.0709648438e+04
    9.8299188539e-03    8.0655625000e+04
    9.8399166018e-03    8.0601820312e+04
    9.8499180749e-03    8.0548140625e+04
    9.8599269986e-03    8.0494781250e+04
    9.8699405789e-03    8.0441898438e+04
    9.8799550906e-03    8.0389343750e+04
    9.8899668083e-03    8.0336890625e+04
    9.8999757320e-03    8.0284609375e+04
    9.9099939689e-03    8.0232726562e+04
    9.9197449163e-03    8.0182609375e+04
    9.9297733977e-03    8.0131250000e+04
    9.9398083985e-03    8.0080148438e+04
    9.9498461932e-03    8.0029421875e+04
    9.9598821253e-03    7.9979046875e+04
    9.9699189886e-03    7.9929015625e+04
    9.9799521267e-03    7.9879335938e+04
    9.9899908528e-03    7.9829898438e+04
    9.9997632205e-03    7.9781945312e+04
    1.0009816848e-02    7.9732859375e+04
    1.0019865818e-02    7.9684273438e+04
    1.0029920377e-02    7.9636062500e+04
    1.0039980523e-02    7.9587898438e+04
    1.0049761273e-02    7.9541187500e+04
    1.0059830733e-02    7.9493414062e+04
    1.0069914162e-02    7.9445914062e+04
    1.0079728439e-02    7.9399867188e+04
    1.0089827701e-02    7.9352656250e+04
    1.0099926963e-02    7.9305750000e+04
    1.0109743103e-02    7.9260445312e+04
    1.0119839571e-02    7.9214132812e+04
    1.0129931383e-02    7.9168179688e+04
    1.0139742866e-02    7.9123867188e+04
    1.0149838403e-02    7.9078570312e+04
    1.0159941390e-02    7.9033523438e+04
    1.0169768706e-02    7.8990007812e+04
    1.0179877281e-02    7.8945476562e+04
    1.0189984925e-02    7.8901148438e+04
    1.0199810378e-02    7.8858328125e+04
    1.0209916160e-02    7.8814601562e+04
    1.0219739750e-02    7.8772312500e+04
    1.0229842737e-02    7.8728984375e+04
    1.0239949450e-02    7.8685820312e+04
    1.0249776766e-02    7.8644054688e+04
    1.0259885341e-02    7.8601375000e+04
    1.0269992054e-02    7.8559101562e+04
    1.0279816575e-02    7.8518390625e+04
    1.0289921425e-02    7.8476757812e+04
    1.0299749672e-02    7.8436406250e+04
    1.0309861042e-02    7.8395078125e+04
    1.0319973342e-02    7.8354085938e+04
    1.0329804383e-02    7.8314601562e+04
    1.0339918546e-02    7.8274242188e+04
    1.0349747725e-02    7.8235117188e+04
    1.0359858163e-02    7.8195023438e+04
    1.0369971395e-02    7.8155226562e+04
    1.0379812680e-02    7.8116796875e+04
    1.0389943607e-02    7.8077390625e+04
    1.0399794206e-02    7.8039265625e+04
    1.0409923270e-02    7.8000460938e+04
    1.0419772938e-02    7.7963054688e+04
    1.0429903865e-02    7.7924679688e+04
    1.0439751670e-02    7.7887500000e+04
    1.0449890047e-02    7.7849648438e+04
    1.0459755547e-02    7.7813289062e+04
    1.0469908826e-02    7.7775992188e+04
    1.0479784571e-02    7.7739531250e+04
    1.0489940643e-02    7.7702078125e+04
    1.0499812663e-02    7.7666265625e+04
    1.0509967804e-02    7.7630164062e+04
    1.0519840755e-02    7.7595328125e+04
    1.0529993102e-02    7.7559265625e+04
    1.0539862327e-02    7.7523984375e+04
    1.0549739935e-02    7.7488890625e+04
    1.0559901595e-02    7.7453468750e+04
    1.0569784790e-02    7.7419703125e+04
    1.0579952039e-02    7.7385296875e+04
    1.0589836165e-02    7.7351789062e+04
    1.0599718429e-02    7.7318093750e+04
    1.0609881952e-02    7.7283421875e+04
    1.0619761422e-02    7.7249976562e+04
    1.0629923083e-02    7.7216109375e+04
    1.0639800690e-02    7.7183750000e+04
    1.0649960488e-02    7.7150859375e+04
    1.0659838095e-02    7.7118976562e+04
    1.0669996962e-02    7.7086156250e+04
    1.0679873638e-02    7.7054289062e+04
    1.0689749382e-02    7.7022578125e+04
    1.0699907318e-02    7.6990203125e+04
    1.0709783062e-02    7.6958960938e+04
    1.0719940998e-02    7.6927093750e+04
    1.0729816742e-02    7.6896414062e+04
    1.0739973746e-02    7.6865203125e+04
    1.0749848559e-02    7.6835164062e+04
    1.0759721510e-02    7.6805343750e+04
    1.0769876651e-02    7.6774796875e+04
    1.0779749602e-02    7.6745156250e+04
    1.0789904743e-02    7.6714812500e+04
    1.0799777694e-02    7.6685570312e+04
    1.0809932835e-02    7.6655804688e+04
    1.0819805786e-02    7.6627109375e+04
    1.0829960927e-02    7.6597734375e+04
    1.0839834809e-02    7.6569281250e+04
    1.0849991813e-02    7.6540148438e+04
    1.0859872214e-02    7.6512054688e+04
    1.0869756341e-02    7.6484273438e+04
    1.0879923590e-02    7.6456007812e+04
    1.0889812373e-02    7.6428695312e+04
    1.0899987072e-02    7.6400718750e+04
    1.0909877717e-02    7.6373710938e+04
    1.0919774882e-02    7.6346953125e+04
    1.0929963551e-02    7.6319671875e+04
    1.0939884931e-02    7.6293234375e+04
    1.0949813761e-02    7.6266906250e+04
    1.0959745385e-02    7.6240773438e+04
    1.0969963856e-02    7.6214171875e+04
    1.0979900137e-02    7.6188507812e+04
    1.0989834554e-02    7.6162984375e+04
    1.0999776423e-02    7.6137617188e+04
    1.1009726673e-02    7.6112476562e+04
    1.1019962840e-02    7.6086835938e+04
    1.1029914021e-02    7.6062078125e+04
    1.1039866135e-02    7.6037492188e+04
    1.1049820110e-02    7.6013117188e+04
    1.1059786193e-02    7.5988921875e+04
    1.1069777422e-02    7.5964843750e+04
    1.1079791933e-02    7.5940890625e+04
    1.1089827865e-02    7.5917054688e+04
    1.1099886149e-02    7.5893335938e+04
    1.1109969579e-02    7.5869726562e+04
    1.1119787581e-02    7.5846960938e+04
    1.1129915714e-02    7.5823695312e+04
    1.1139777489e-02    7.5801242188e+04
    1.1149956845e-02    7.5778257812e+04
    1.1159876361e-02    7.5756093750e+04
    1.1169828475e-02    7.5734117188e+04
    1.1179816909e-02    7.5712265625e+04
    1.1189838871e-02    7.5690429688e+04
    1.1199889705e-02    7.5668570312e+04
    1.1209961027e-02    7.5646828125e+04
    1.1219747365e-02    7.5626007812e+04
    1.1229836382e-02    7.5604859375e+04
    1.1239930987e-02    7.5583882812e+04
    1.1249730363e-02    7.5563562500e+04
    1.1259832419e-02    7.5542671875e+04
    1.1269953102e-02    7.5521929688e+04
    1.1279799975e-02    7.5502023438e+04
    1.1289975606e-02    7.5481750000e+04
    1.1299882084e-02    7.5462250000e+04
    1.1309812777e-02    7.5442882812e+04
    1.1319758371e-02    7.5423664062e+04
    1.1329710484e-02    7.5404546875e+04
    1.1339970864e-02    7.5384914062e+04
    1.1349942535e-02    7.5365937500e+04
    1.1359958909e-02    7.5347078125e+04
    1.1369754560e-02    7.5328898438e+04
    1.1379989795e-02    7.5310156250e+04
    1.1389770545e-02    7.5292414062e+04
    1.1399733834e-02    7.5274523438e+04
    1.1409896426e-02    7.5256507812e+04
    1.1419923045e-02    7.5238921875e+04
    1.1429797858e-02    7.5221656250e+04
    1.1439849623e-02    7.5204078125e+04
    1.1449720711e-02    7.5186960938e+04
    1.1459751986e-02    7.5169921875e+04
    1.1469941586e-02    7.5153039062e+04
    1.1479915120e-02    7.5136742188e+04
    1.1489653960e-02    7.5120843750e+04
    1.1499906890e-02    7.5104062500e+04
    1.1509913020e-02    7.5087757812e+04
    1.1519656517e-02    7.5072117188e+04
    1.1529915035e-02    7.5055992188e+04
    1.1539899744e-02    7.5040601562e+04
    1.1549595743e-02    7.5025820312e+04
    1.1559811421e-02    7.5010281250e+04
    1.1569728144e-02    7.4995218750e+04
    1.1579752900e-02    7.4980156250e+04
    1.1589883827e-02    7.4965265625e+04
    1.1599686928e-02    7.4951156250e+04
    1.1609586887e-02    7.4937054688e+04
    1.1619587429e-02    7.4922851562e+04
    1.1629686691e-02    7.4908570312e+04
    1.1639874429e-02    7.4894335938e+04
    1.1649692431e-02    7.4880890625e+04
    1.1659575626e-02    7.4867632812e+04
    1.1669977568e-02    7.4853812500e+04
    1.1679983698e-02    7.4840500000e+04
    1.1689576320e-02    7.4827828125e+04
    1.1699660681e-02    7.4814781250e+04
    1.1709782295e-02    7.4802039062e+04
    1.1719947681e-02    7.4789453125e+04
    1.1729687452e-02    7.4777390625e+04
    1.1739935726e-02    7.4764773438e+04
    1.1749757454e-02    7.4752851562e+04
    1.1759617366e-02    7.4741148438e+04
    1.1769996025e-02    7.4729085938e+04
    1.1779938824e-02    7.4717710938e+04
    1.1789919809e-02    7.4706390625e+04
    1.1799964122e-02    7.4695109375e+04
    1.1809553020e-02    7.4684492188e+04
    1.1819659732e-02    7.4673429688e+04
    1.1829792522e-02    7.4662578125e+04
    1.1839991435e-02    7.4651843750e+04
    1.1849734001e-02    7.4641671875e+04
    1.1859982274e-02    7.4631195312e+04
    1.1869821697e-02    7.4621187500e+04
    1.1879644357e-02    7.4611398438e+04
    1.1889544316e-02    7.4601812500e+04
    1.1899957433e-02    7.4591726562e+04
    1.1909895577e-02    7.4582359375e+04
    1.1919938959e-02    7.4573031250e+04
    1.1929932050e-02    7.4563914062e+04
    1.1939978227e-02    7.4554937500e+04
    1.1949554086e-02    7.4546515625e+04
    1.1959646828e-02    7.4537757812e+04
    1.1969862506e-02    7.4529164062e+04
    1.1979538947e-02    7.4521054688e+04
    1.1989740655e-02    7.4512671875e+04
    1.1999969371e-02    7.4504515625e+04
    1.2009769678e-02    7.4496890625e+04
    1.2019567192e-02    7.4489312500e+04
    1.2029922567e-02    7.4481476562e+04
    1.2039798312e-02    7.4474312500e+04
    1.2049684301e-02    7.4467093750e+04
    1.2059650384e-02    7.4460070312e+04
    1.2069595978e-02    7.4453117188e+04
    1.2079581618e-02    7.4446484375e+04
    1.2089564465e-02    7.4439984375e+04
    1.2099516578e-02    7.4433523438e+04
    1.2109545060e-02    7.4427312500e+04
    1.2119606137e-02    7.4421140625e+04
    1.2129686773e-02    7.4415171875e+04
    1.2139816768e-02    7.4409382812e+04
    1.2149969116e-02    7.4403570312e+04
    1.2159586884e-02    7.4398257812e+04
    1.2169767171e-02    7.4392742188e+04
    1.2179992162e-02    7.4387484375e+04
    1.2189663947e-02    7.4382671875e+04
    1.2199931778e-02    7.4377617188e+04
    1.2209653854e-02    7.4373007812e+04
    1.2219944969e-02    7.4368281250e+04
    1.2229721062e-02    7.4364007812e+04
    1.2239457108e-02    7.4359867188e+04
    1.2249750085e-02    7.4355609375e+04
    1.2259455398e-02    7.4351757812e+04
    1.2269660830e-02    7.4347859375e+04
    1.2279708870e-02    7.4344203125e+04
    1.2289508246e-02    7.4340789062e+04
    1.2299530208e-02    7.4337500000e+04
    1.2309698388e-02    7.4334343750e+04
    1.2319977395e-02    7.4331335938e+04
    1.2329887599e-02    7.4328570312e+04
    1.2339866720e-02    7.4325890625e+04
    1.2349877506e-02    7.4323328125e+04
    1.2359883636e-02    7.4320945312e+04
    1.2369843200e-02    7.4318757812e+04
    1.2379718013e-02    7.4316765625e+04
    1.2389804237e-02    7.4314843750e+04
    1.2399681844e-02    7.4313062500e+04
    1.2409906834e-02    7.4311351562e+04
    1.2419746257e-02    7.4309914062e+04
    1.2429914437e-02    7.4308679688e+04
    1.2439899147e-02    7.4307671875e+04
    1.2449936010e-02    7.4306750000e+04
    1.2459983118e-02    7.4305851562e+04
    1.2469974346e-02    7.4305062500e+04
    1.2479937635e-02    7.4304484375e+04
    1.2489970773e-02    7.4304187500e+04
    1.2499983422e-02    7.4304046875e+04
    1.2509844266e-02    7.4303960938e+04
    1.2519983575e-02    7.4303960938e+04
    1.2529953383e-02    7.4304148438e+04
    1.2539986521e-02    7.4304562500e+04
    1.2549815699e-02    7.4305109375e+04
    1.2559912167e-02    7.4305773438e+04
    1.2569852173e-02    7.4306562500e+04
    1.2579854578e-02    7.4307523438e+04
    1.2589902617e-02    7.4308664062e+04
    1.2599961832e-02    7.4309953125e+04
    1.2609979138e-02    7.4311421875e+04
    1.2619925663e-02    7.4313101562e+04
    1.2629779987e-02    7.4314945312e+04
    1.2639945373e-02    7.4317000000e+04
    1.2649967335e-02    7.4319140625e+04
    1.2659845874e-02    7.4321375000e+04
    1.2669999152e-02    7.4323835938e+04
    1.2679995969e-02    7.4326421875e+04
    1.2689793482e-02    7.4329132812e+04
    1.2699881569e-02    7.4332046875e+04
    1.2709992006e-02    7.4335085938e+04
    1.2719920836e-02    7.4338210938e+04
    1.2729875743e-02    7.4341523438e+04
    1.2739865109e-02    7.4345054688e+04
    1.2749888003e-02    7.4348820312e+04
    1.2759927660e-02    7.4352742188e+04
    1.2769776396e-02    7.4356710938e+04
    1.2779858895e-02    7.4360882812e+04
    1.2789994478e-02    7.4365242188e+04
    1.2799891643e-02    7.4369679688e+04
    1.2809826061e-02    7.4374289062e+04
    1.2819768861e-02    7.4379023438e+04
    1.2829976156e-02    7.4384007812e+04
    1.2839977629e-02    7.4389046875e+04
    1.2849964201e-02    7.4394250000e+04
    1.2859767303e-02    7.4399523438e+04
    1.2869806029e-02    7.4405070312e+04
    1.2879873626e-02    7.4410781250e+04
    1.2889955193e-02    7.4416671875e+04
    1.2899830937e-02    7.4422625000e+04
    1.2909952551e-02    7.4428890625e+04
    1.2919849716e-02    7.4435164062e+04
    1.2929783203e-02    7.4441632812e+04
    1.2939957902e-02    7.4448429688e+04
    1.2949905358e-02    7.4455210938e+04
    1.2959885411e-02    7.4462156250e+04
    1.2969875708e-02    7.4469281250e+04
    1.2979866937e-02    7.4476585938e+04
    1.2989889830e-02    7.4484078125e+04
    1.2999930419e-02    7.4491710938e+04
    1.3009967282e-02    7.4499484375e+04
    1.3019781560e-02    7.4507257812e+04
    1.3029867783e-02    7.4515437500e+04
    1.3039948419e-02    7.4523773438e+04
    1.3049791567e-02    7.4532039062e+04
    1.3059915975e-02    7.4540718750e+04
    1.3069796376e-02    7.4549398438e+04
    1.3079917058e-02    7.4558468750e+04
    1.3089825399e-02    7.4567468750e+04
    1.3099994510e-02    7.4576828125e+04
    1.3109903783e-02    7.4586148438e+04
    1.3119834475e-02    7.4595703125e+04
    1.3129794039e-02    7.4605468750e+04
    1.3139991090e-02    7.4615601562e+04
    1.3149947859e-02    7.4625640625e+04
    1.3159934431e-02    7.4635898438e+04
    1.3169922866e-02    7.4646320312e+04
    1.3179906644e-02    7.4656882812e+04
    1.3189918362e-02    7.4667609375e+04
    1.3199944980e-02    7.4678531250e+04
    1.3209957629e-02    7.4689632812e+04
    1.3219984248e-02    7.4700914062e+04
    1.3229789212e-02    7.4712125000e+04
    1.3239840046e-02    7.4723812500e+04
    1.3249888085e-02    7.4735687500e+04
    1.3259962201e-02    7.4747750000e+04
    1.3269794174e-02    7.4759687500e+04
    1.3279882260e-02    7.4772117188e+04
    1.3289980590e-02    7.4784726562e+04
    1.3299838640e-02    7.4797171875e+04
    1.3309950009e-02    7.4810054688e+04
    1.3319816440e-02    7.4822789062e+04
    1.3329959475e-02    7.4836101562e+04
    1.3339847326e-02    7.4849320312e+04
    1.3349989429e-02    7.4863046875e+04
    1.3359892182e-02    7.4876554688e+04
    1.3369810767e-02    7.4890195312e+04
    1.3379981741e-02    7.4904390625e+04
    1.3389901258e-02    7.4918476562e+04
    1.3399835676e-02    7.4932789062e+04
    1.3409778476e-02    7.4947296875e+04
    1.3419982046e-02    7.4962367188e+04
    1.3429935090e-02    7.4977273438e+04
    1.3439897448e-02    7.4992398438e+04
    1.3449861668e-02    7.5007718750e+04
    1.3459840789e-02    7.5023257812e+04
    1.3469823636e-02    7.5039007812e+04
    1.3479810208e-02    7.5054960938e+04
    1.3489799574e-02    7.5071085938e+04
    1.3499801047e-02    7.5087382812e+04
    1.3509812765e-02    7.5103867188e+04
    1.3519824483e-02    7.5120546875e+04
    1.3529838063e-02    7.5137421875e+04
    1.3539862819e-02    7.5154492188e+04
    1.3549895026e-02    7.5171765625e+04
    1.3559931889e-02    7.5189250000e+04
    1.3569971547e-02    7.5206937500e+04
    1.3579756021e-02    7.5224359375e+04
    1.3589809649e-02    7.5242468750e+04
    1.3599869795e-02    7.5260804688e+04
    1.3609933667e-02    7.5279320312e+04
    1.3619999401e-02    7.5298000000e+04
    1.3629809022e-02    7.5316382812e+04
    1.3639886864e-02    7.5335523438e+04
    1.3649970293e-02    7.5354937500e+04
    1.3659794815e-02    7.5374046875e+04
    1.3669884764e-02    7.5393812500e+04
    1.3679977506e-02    7.5413757812e+04
    1.3689818792e-02    7.5433445312e+04
    1.3699922711e-02    7.5453906250e+04
    1.3709763996e-02    7.5474031250e+04
    1.3719871640e-02    7.5494882812e+04
    1.3729985803e-02    7.5515937500e+04
    1.3739846647e-02    7.5536695312e+04
    1.3749971986e-02    7.5558257812e+04
    1.3759837486e-02    7.5579484375e+04
    1.3769965619e-02    7.5601484375e+04
    1.3779836707e-02    7.5623148438e+04
    1.3789965771e-02    7.5645625000e+04
    1.3799836859e-02    7.5667750000e+04
    1.3809966855e-02    7.5690664062e+04
    1.3819841668e-02    7.5713210938e+04
    1.3829983771e-02    7.5736593750e+04
    1.3839868829e-02    7.5759593750e+04
    1.3849756680e-02    7.5782812500e+04
    1.3859905303e-02    7.5806890625e+04
    1.3869795017e-02    7.5830601562e+04
    1.3879943639e-02    7.5855210938e+04
    1.3889832422e-02    7.5879445312e+04
    1.3899981044e-02    7.5904554688e+04
    1.3909868896e-02    7.5929226562e+04
    1.3919756748e-02    7.5954101562e+04
    1.3929904439e-02    7.5979851562e+04
    1.3939792290e-02    7.6005195312e+04
    1.3949940912e-02    7.6031468750e+04
    1.3959829696e-02    7.6057335938e+04
    1.3969979249e-02    7.6084140625e+04
    1.3979868963e-02    7.6110531250e+04
    1.3989759609e-02    7.6137179688e+04
    1.3999911956e-02    7.6165328125e+04
    1.4009803534e-02    7.6298015625e+04
    1.4019957744e-02    8.5566390625e+04
    1.4029851183e-02    1.0587444531e+05
    1.4039745554e-02    1.0519875000e+05
    1.4049899764e-02    1.0495650000e+05
    1.4059794135e-02    1.0486346875e+05
    1.4069949277e-02    1.0479528125e+05
    1.4079843648e-02    1.0473100000e+05
    1.4089999720e-02    1.0466808594e+05
    1.4099895023e-02    1.0460625000e+05
    1.4109792188e-02    1.0454410156e+05
    1.4119949192e-02    1.0447971875e+05
    1.4129846357e-02    1.0441725000e+05
    1.4139744453e-02    1.0435464844e+05
    1.4149903320e-02    1.0429085156e+05
    1.4159802347e-02    1.0422871094e+05
    1.4169961214e-02    1.0416537500e+05
    1.4179861173e-02    1.0410378906e+05
    1.4189760201e-02    1.0404258594e+05
    1.4199920930e-02    1.0397921094e+05
    1.4209821820e-02    1.0391925000e+05
    1.4219982550e-02    1.0385638281e+05
    1.4229883440e-02    1.0379581250e+05
    1.4239784330e-02    1.0373505469e+05
    1.4249945991e-02    1.0367483594e+05
    1.4259847812e-02    1.0361300000e+05
    1.4269751497e-02    1.0355347656e+05
    1.4279915951e-02    1.0349288281e+05
    1.4289823361e-02    1.0343360156e+05
    1.4299994335e-02    1.0337200000e+05
    1.4309908263e-02    1.0331368750e+05
    1.4319823124e-02    1.0325496094e+05
    1.4329998754e-02    1.0319483594e+05
    1.4339912683e-02    1.0313662500e+05
    1.4349824749e-02    1.0307871094e+05
    1.4359997585e-02    1.0301944531e+05
    1.4369908720e-02    1.0296167969e+05
    1.4379820786e-02    1.0290408594e+05
    1.4389995486e-02    1.0284496875e+05
    1.4399913140e-02    1.0278778125e+05
    1.4409831725e-02    1.0273083594e+05
    1.4419750310e-02    1.0267430469e+05
    1.4429928735e-02    1.0261631250e+05
    1.4439847320e-02    1.0256002344e+05
    1.4449764974e-02    1.0250375781e+05
    1.4459943399e-02    1.0244639844e+05
    1.4469861984e-02    1.0239064844e+05
    1.4479780570e-02    1.0233522656e+05
    1.4489959925e-02    1.0227839844e+05
    1.4499879442e-02    1.0222333594e+05
    1.4509798959e-02    1.0216835156e+05
    1.4519979246e-02    1.0211228906e+05
    1.4529897831e-02    1.0205778125e+05
    1.4539817348e-02    1.0200358594e+05
    1.4549996704e-02    1.0194803125e+05
    1.4559916221e-02    1.0189416406e+05
    1.4569835737e-02    1.0184043750e+05
    1.4579755254e-02    1.0178699219e+05
    1.4589936472e-02    1.0173217969e+05
    1.4599855989e-02    1.0167891406e+05
    1.4609776437e-02    1.0162652344e+05
    1.4619956724e-02    1.0157221094e+05
    1.4629876241e-02    1.0151883594e+05
    1.4639795758e-02    1.0146725781e+05
    1.4649976976e-02    1.0141407031e+05
    1.4659897424e-02    1.0136141406e+05
    1.4669817872e-02    1.0130921094e+05
    1.4679999091e-02    1.0125722656e+05
    1.4689918607e-02    1.0120580469e+05
    1.4699839056e-02    1.0115357031e+05
    1.4709759504e-02    1.0110339844e+05
    1.4719940722e-02    1.0105141406e+05
    1.4729861170e-02    1.0100031250e+05
    1.4739781618e-02    1.0095037500e+05
    1.4749963768e-02    1.0089847656e+05
    1.4759884216e-02    1.0084867969e+05
    1.4769804664e-02    1.0079871094e+05
    1.4779985882e-02    1.0074771094e+05
    1.4789907262e-02    1.0069806250e+05
    1.4799828641e-02    1.0064858594e+05
    1.4809749089e-02    1.0059925781e+05
    1.4819931239e-02    1.0054888281e+05
    1.4829851687e-02    1.0049996875e+05
    1.4839773066e-02    1.0045132031e+05
    1.4849955216e-02    1.0040157031e+05
    1.4859876595e-02    1.0035333594e+05
    1.4869797975e-02    1.0030528125e+05
    1.4879980125e-02    1.0025615625e+05
    1.4889900573e-02    1.0020846875e+05
    1.4899821952e-02    1.0016089844e+05
    1.4909743331e-02    1.0011352344e+05
    1.4919926412e-02    1.0006503125e+05
    1.4929847792e-02    1.0001802344e+05
    1.4939769171e-02    9.9971062500e+04
    1.4949951321e-02    9.9922937500e+04
    1.4959873632e-02    9.9876226562e+04
    1.4969795011e-02    9.9830101562e+04
    1.4979978092e-02    9.9782539062e+04
    1.4989899471e-02    9.9735976562e+04
    1.4999820851e-02    9.9690804688e+04
    1.5009743161e-02    9.9645093750e+04
    1.5019926243e-02    9.9597992188e+04
    1.5029847622e-02    9.9552351562e+04
    1.5039769933e-02    9.9508125000e+04
    1.5049953014e-02    9.9461539062e+04
    1.5059874393e-02    9.9416125000e+04
    1.5069796704e-02    9.9371679688e+04
    1.5079980716e-02    9.9326773438e+04
    1.5089902095e-02    9.9281437500e+04
    1.5099824406e-02    9.9237054688e+04
    1.5109746717e-02    9.9193898438e+04
    1.5119930729e-02    9.9148570312e+04
    1.5129853040e-02    9.9104351562e+04
    1.5139775351e-02    9.9060820312e+04
    1.5149959363e-02    9.9016195312e+04
    1.5159881674e-02    9.8972960938e+04
    1.5169804916e-02    9.8929437500e+04
    1.5179988928e-02    9.8885726562e+04
    1.5189912170e-02    9.8842414062e+04
    1.5199835412e-02    9.8799968750e+04
    1.5209757723e-02    9.8757164062e+04
    1.5219942667e-02    9.8713757812e+04
    1.5229865909e-02    9.8671320312e+04
    1.5239789151e-02    9.8629101562e+04
    1.5249974094e-02    9.8585820312e+04
    1.5259898268e-02    9.8543851562e+04
    1.5269821510e-02    9.8502054688e+04
    1.5279745683e-02    9.8460429688e+04
    1.5289931558e-02    9.8417898438e+04
    1.5299855731e-02    9.8376570312e+04
    1.5309779905e-02    9.8335335938e+04
    1.5319965780e-02    9.8293062500e+04
    1.5329889953e-02    9.8251937500e+04
    1.5339814126e-02    9.8210960938e+04
    1.5349739231e-02    9.8170179688e+04
    1.5359925106e-02    9.8128476562e+04
    1.5369850211e-02    9.8087929688e+04
    1.5379774384e-02    9.8047335938e+04
    1.5389961191e-02    9.8005875000e+04
    1.5399886295e-02    9.7965906250e+04
    1.5409812331e-02    9.7925664062e+04
    1.5420000069e-02    9.7884148438e+04
    1.5429926105e-02    9.7844898438e+04
    1.5439852141e-02    9.7805375000e+04
    1.5449778177e-02    9.7764789062e+04
    1.5459965914e-02    9.7724289062e+04
    1.5469892882e-02    9.7685726562e+04
    1.5479819849e-02    9.7646601562e+04
    1.5489746816e-02    9.7606914062e+04
    1.5499934554e-02    9.7567125000e+04
    1.5509861521e-02    9.7527835938e+04
    1.5519788489e-02    9.7487882812e+04
    1.5529978089e-02    9.7447351562e+04
    1.5539905056e-02    9.7409281250e+04
    1.5549832955e-02    9.7371781250e+04
    1.5559760854e-02    9.7334687500e+04
    1.5569949523e-02    9.7296593750e+04
    1.5579877421e-02    9.7258210938e+04
    1.5589805320e-02    9.7218000000e+04
    1.5599994920e-02    9.7176179688e+04
    1.5609923750e-02    9.7135320312e+04
    1.5619852580e-02    9.7096687500e+04
    1.5629781410e-02    9.7060273438e+04
    1.5639971942e-02    9.7025414062e+04
    1.5649901703e-02    9.6992179688e+04
    1.5659831464e-02    9.6958148438e+04
    1.5669761226e-02    9.6921742188e+04
    1.5679951757e-02    9.6881476562e+04
    1.5689881518e-02    9.6840101562e+04
    1.5699811280e-02    9.6798062500e+04
    1.5709741041e-02    9.6756960938e+04
    1.5719933435e-02    9.6716867188e+04
    1.5729863197e-02    9.6680125000e+04
    1.5739794821e-02    9.6645187500e+04
    1.5749987215e-02    9.6610335938e+04
    1.5759916976e-02    9.6576585938e+04
    1.5769848600e-02    9.6542750000e+04
    1.5779780224e-02    9.6508843750e+04
    1.5789972618e-02    9.6473968750e+04
    1.5799904242e-02    9.6439226562e+04
    1.5809835866e-02    9.6403023438e+04
    1.5819767490e-02    9.6366601562e+04
    1.5829959884e-02    9.6329601562e+04
    1.5839891508e-02    9.6291781250e+04
    1.5849824995e-02    9.6253656250e+04
    1.5859756619e-02    9.6216804688e+04
    1.5869950876e-02    9.6178710938e+04
    1.5879882500e-02    9.6141539062e+04
    1.5889815986e-02    9.6105992188e+04
    1.5899749473e-02    9.6071601562e+04
    1.5909943730e-02    9.6035710938e+04
    1.5919875354e-02    9.6001437500e+04
    1.5929808840e-02    9.5967406250e+04
    1.5939742327e-02    9.5933289062e+04
    1.5949938446e-02    9.5897492188e+04
    1.5959871933e-02    9.5863023438e+04
    1.5969805419e-02    9.5828492188e+04
    1.5979738906e-02    9.5794007812e+04
    1.5989935026e-02    9.5759093750e+04
    1.5999870375e-02    9.5725164062e+04
    1.6009803861e-02    9.5691210938e+04
    1.6019739211e-02    9.5657406250e+04
    1.6029935330e-02    9.5622554688e+04
    1.6039870679e-02    9.5588851562e+04
    1.6049806029e-02    9.5555062500e+04
    1.6059739515e-02    9.5521289062e+04
    1.6069937497e-02    9.5486406250e+04
    1.6079872847e-02    9.5452132812e+04
    1.6089808196e-02    9.5417539062e+04
    1.6099743545e-02    9.5382562500e+04
    1.6109941527e-02    9.5346414062e+04
    1.6119876876e-02    9.5311156250e+04
    1.6129814088e-02    9.5276218750e+04
    1.6139749438e-02    9.5241914062e+04
    1.6149947420e-02    9.5207648438e+04
    1.6159884632e-02    9.5175351562e+04
    1.6169821844e-02    9.5144179688e+04
    1.6179759055e-02    9.5114070312e+04
    1.6189957038e-02    9.5083476562e+04
    1.6199894249e-02    9.5052750000e+04
    1.6209831461e-02    9.5021289062e+04
    1.6219768673e-02    9.4989476562e+04
    1.6229968518e-02    9.4954804688e+04
    1.6239905730e-02    9.4920117188e+04
    1.6249842942e-02    9.4887023438e+04
    1.6259782016e-02    9.4853789062e+04
    1.6269979998e-02    9.4819156250e+04
    1.6279919073e-02    9.4786132812e+04
    1.6289856285e-02    9.4753773438e+04
    1.6299795359e-02    9.4720445312e+04
    1.6309995204e-02    9.4686460938e+04
    1.6319934279e-02    9.4654718750e+04
    1.6329873353e-02    9.4624164062e+04
    1.6339810565e-02    9.4593414062e+04
    1.6349749640e-02    9.4563226562e+04
    1.6359951347e-02    9.4531539062e+04
    1.6369890422e-02    9.4498914062e+04
    1.6379829496e-02    9.4465757812e+04
    1.6389768571e-02    9.4432085938e+04
    1.6399970278e-02    9.4398085938e+04
    1.6409909353e-02    9.4366242188e+04
    1.6419848427e-02    9.4335429688e+04
    1.6429789364e-02    9.4305460938e+04
    1.6439991072e-02    9.4274625000e+04
    1.6449930146e-02    9.4243968750e+04
    1.6459871083e-02    9.4212281250e+04
    1.6469812021e-02    9.4179937500e+04
    1.6479751095e-02    9.4147398438e+04
    1.6489952803e-02    9.4114593750e+04
    1.6499893740e-02    9.4083460938e+04
    1.6509834677e-02    9.4053210938e+04
    1.6519775614e-02    9.4023398438e+04
    1.6529977322e-02    9.3992617188e+04
    1.6539918259e-02    9.3961898438e+04
    1.6549861059e-02    9.3930335938e+04
    1.6559801996e-02    9.3898476562e+04
    1.6569742933e-02    9.3867101562e+04
    1.6579946503e-02    9.3835601562e+04
    1.6589887440e-02    9.3805304688e+04
    1.6599828377e-02    9.3775710938e+04
    1.6609771177e-02    9.3746539062e+04
    1.6619974747e-02    9.3714968750e+04
    1.6629915684e-02    9.3683070312e+04
    1.6639858484e-02    9.3652492188e+04
    1.6649799421e-02    9.3622000000e+04
    1.6659742221e-02    9.3591414062e+04
    1.6669945791e-02    9.3561500000e+04
    1.6679888591e-02    9.3532664062e+04
    1.6689829528e-02    9.3502429688e+04
    1.6699772328e-02    9.3471312500e+04
    1.6709977761e-02    9.3439937500e+04
    1.6719920561e-02    9.3409625000e+04
    1.6729863361e-02    9.3380000000e+04
    1.6739806160e-02    9.3350914062e+04
    1.6749748960e-02    9.3321851562e+04
    1.6759952530e-02    9.3290914062e+04
    1.6769895330e-02    9.3261000000e+04
    1.6779839993e-02    9.3230593750e+04
    1.6789782792e-02    9.3201210938e+04
    1.6799988225e-02    9.3171242188e+04
    1.6809931025e-02    9.3142351562e+04
    1.6819875687e-02    9.3112960938e+04
    1.6829818487e-02    9.3083250000e+04
    1.6839763150e-02    9.3053414062e+04
    1.6849968582e-02    9.3023273438e+04
    1.6859911382e-02    9.2994304688e+04
    1.6869856045e-02    9.2965523438e+04
    1.6879798844e-02    9.2936437500e+04
    1.6889743507e-02    9.2907070312e+04
    1.6899948940e-02    9.2876898438e+04
    1.6909893602e-02    9.2847835938e+04
    1.6919838265e-02    9.2819164062e+04
    1.6929782927e-02    9.2790554688e+04
    1.6939988360e-02    9.2760960938e+04
    1.6949933022e-02    9.2731960938e+04
    1.6959877685e-02    9.2703101562e+04
    1.6969822347e-02    9.2674414062e+04
    1.6979767010e-02    9.2645593750e+04
    1.6989974305e-02    9.2616492188e+04
    1.6999918967e-02    9.2588460938e+04
    1.7009863630e-02    9.2559429688e+04
    1.7019808292e-02    9.2530289062e+04
    1.7029754817e-02    9.2502539062e+04
    1.7039960250e-02    9.2473875000e+04
    1.7049906775e-02    9.2444960938e+04
    1.7059851438e-02    9.2416648438e+04
    1.7069796100e-02    9.2388960938e+04
    1.7079742625e-02    9.2360585938e+04
    1.7089949921e-02    9.2331335938e+04
    1.7099894583e-02    9.2304023438e+04
    1.7109841108e-02    9.2275695312e+04
    1.7119785771e-02    9.2247570312e+04
    1.7129993066e-02    9.2218906250e+04
    1.7139939591e-02    9.2191023438e+04
    1.7149886116e-02    9.2163187500e+04
    1.7159830779e-02    9.2135601562e+04
    1.7169777304e-02    9.2107601562e+04
    1.7179984599e-02    9.2079382812e+04
    1.7189931124e-02    9.2051742188e+04
    1.7199875787e-02    9.2024257812e+04
    1.7209822312e-02    9.1997000000e+04
    1.7219768837e-02    9.1969445312e+04
    1.7229976133e-02    9.1941148438e+04
    1.7239922658e-02    9.1913585938e+04
    1.7249869183e-02    9.1885875000e+04
    1.7259815708e-02    9.1857976562e+04
    1.7269762233e-02    9.1830289062e+04
    1.7279969528e-02    9.1802164062e+04
    1.7289916053e-02    9.1774960938e+04
    1.7299862579e-02    9.1748367188e+04
    1.7309809104e-02    9.1722179688e+04
    1.7319753766e-02    9.1696007812e+04
    1.7329962924e-02    9.1668914062e+04
    1.7339909449e-02    9.1642414062e+04
    1.7349855974e-02    9.1615882812e+04
    1.7359802499e-02    9.1588789062e+04
    1.7369749025e-02    9.1561148438e+04
    1.7379956320e-02    9.1533367188e+04
    1.7389904708e-02    9.1506679688e+04
    1.7399851233e-02    9.1479242188e+04
    1.7409797758e-02    9.1452468750e+04
    1.7419744283e-02    9.1426804688e+04
    1.7429951578e-02    9.1399835938e+04
    1.7439898103e-02    9.1372906250e+04
    1.7449846491e-02    9.1346992188e+04
    1.7459793016e-02    9.1321476562e+04
    1.7469739541e-02    9.1294460938e+04
    1.7479946837e-02    9.1267320312e+04
    1.7489893362e-02    9.1241500000e+04
    1.7499841750e-02    9.1215226562e+04
    1.7509788275e-02    9.1188875000e+04
    1.7519995570e-02    9.1162226562e+04
    1.7529942095e-02    9.1135937500e+04
    1.7539890483e-02    9.1109976562e+04
    1.7549837008e-02    9.1084148438e+04
    1.7559783533e-02    9.1058335938e+04
    1.7569992691e-02    9.1032125000e+04
    1.7579939216e-02    9.1006851562e+04
    1.7589885741e-02    9.0981601562e+04
    1.7599832267e-02    9.0956710938e+04
    1.7609778792e-02    9.0931648438e+04
    1.7619987950e-02    9.0906187500e+04
    1.7629934475e-02    9.0881273438e+04
    1.7639881000e-02    9.0856507812e+04
    1.7649827525e-02    9.0831445312e+04
    1.7659774050e-02    9.0806164062e+04
    1.7669983208e-02    9.0779882812e+04
    1.7679929733e-02    9.0754273438e+04
    1.7689876258e-02    9.0728804688e+04
    1.7699824646e-02    9.0703570312e+04
    1.7709771171e-02    9.0678570312e+04
    1.7719978467e-02    9.0652960938e+04
    1.7729926854e-02    9.0628492188e+04
    1.7739873379e-02    9.0604523438e+04
    1.7749819905e-02    9.0580375000e+04
    1.7759766430e-02    9.0556023438e+04
    1.7769975588e-02    9.0531601562e+04
    1.7779922113e-02    9.0507445312e+04
    1.7789868638e-02    9.0482273438e+04
    1.7799815163e-02    9.0457812500e+04
    1.7809761688e-02    9.0433867188e+04
    1.7819970846e-02    9.0408476562e+04
    1.7829917371e-02    9.0383718750e+04
    1.7839863896e-02    9.0360226562e+04
    1.7849810421e-02    9.0337000000e+04
    1.7859756947e-02    9.0312726562e+04
    1.7869966105e-02    9.0288601562e+04
    1.7879912630e-02    9.0265320312e+04
    1.7889859155e-02    9.0241304688e+04
    1.7899805680e-02    9.0217523438e+04
    1.7909752205e-02    9.0194226562e+04
    1.7919961363e-02    9.0169523438e+04
    1.7929907888e-02    9.0146187500e+04
    1.7939854413e-02    9.0122812500e+04
    1.7949800938e-02    9.0099585938e+04
    1.7959747463e-02    9.0076625000e+04
    1.7969956622e-02    9.0052804688e+04
    1.7979903147e-02    9.0029812500e+04
    1.7989849672e-02    9.0006726562e+04
    1.7999796197e-02    8.9983554688e+04
    1.8009742722e-02    8.9960601562e+04
    1.8019950017e-02    8.9937132812e+04
    1.8029896542e-02    8.9914437500e+04
    1.8039843068e-02    8.9891750000e+04
    1.8049789593e-02    8.9869101562e+04
    1.8059998751e-02    8.9845898438e+04
    1.8069945276e-02    8.9823445312e+04
    1.8079891801e-02    8.9801062500e+04
    1.8089838326e-02    8.9778750000e+04
    1.8099784851e-02    8.9756367188e+04
    1.8109994009e-02    8.9733429688e+04
    1.8119940534e-02    8.9711406250e+04
    1.8129887059e-02    8.9689406250e+04
    1.8139835447e-02    8.9667093750e+04
    1.8149781972e-02    8.9645054688e+04
    1.8159991130e-02    8.9623023438e+04
    1.8169939518e-02    8.9600851562e+04
    1.8179886043e-02    8.9578523438e+04
    1.8189834431e-02    8.9557343750e+04
    1.8199782819e-02    8.9536085938e+04
    1.8209991977e-02    8.9513468750e+04
    1.8219940364e-02    8.9491820312e+04
    1.8229888752e-02    8.9470914062e+04
    1.8239837140e-02    8.9449460938e+04
    1.8249785528e-02    8.9427656250e+04
    1.8259996548e-02    8.9406414062e+04
    1.8269946799e-02    8.9385539062e+04
    1.8279895186e-02    8.9364250000e+04
    1.8289843574e-02    8.9343085938e+04
    1.8299793825e-02    8.9322320312e+04
    1.8309744075e-02    8.9301242188e+04
    1.8319955096e-02    8.9279773438e+04
    1.8329905346e-02    8.9259070312e+04
    1.8339857459e-02    8.9238476562e+04
    1.8349807709e-02    8.9217789062e+04
    1.8359757960e-02    8.9197562500e+04
    1.8369970843e-02    8.9176476562e+04
    1.8379922956e-02    8.9156093750e+04
    1.8389875069e-02    8.9135750000e+04
    1.8399827182e-02    8.9115500000e+04
    1.8409777433e-02    8.9095476562e+04
    1.8419992179e-02    8.9074867188e+04
    1.8429946154e-02    8.9054882812e+04
    1.8439898267e-02    8.9034906250e+04
    1.8449854106e-02    8.9015031250e+04
    1.8459808081e-02    8.8995289062e+04
    1.8469762057e-02    8.8975500000e+04
    1.8479978666e-02    8.8955281250e+04
    1.8489932641e-02    8.8935632812e+04
    1.8499886617e-02    8.8916289062e+04
    1.8509840593e-02    8.8897039062e+04
    1.8519794568e-02    8.8877664062e+04
    1.8529748544e-02    8.8858218750e+04
    1.8539963290e-02    8.8838562500e+04
    1.8549917266e-02    8.8819742188e+04
    1.8559873104e-02    8.8800351562e+04
    1.8569827080e-02    8.8781070312e+04
    1.8579782918e-02    8.8762695312e+04
    1.8589999527e-02    8.8743343750e+04
    1.8599953502e-02    8.8723757812e+04
    1.8609909341e-02    8.8705585938e+04
    1.8619865179e-02    8.8687414062e+04
    1.8629821017e-02    8.8668101562e+04
    1.8639778718e-02    8.8649773438e+04
    1.8649997190e-02    8.8631250000e+04
    1.8659954891e-02    8.8612851562e+04
    1.8669914454e-02    8.8594382812e+04
    1.8679872155e-02    8.8576273438e+04
    1.8689829856e-02    8.8558320312e+04
    1.8699789420e-02    8.8540000000e+04
    1.8709747121e-02    8.8522179688e+04
    1.8719969317e-02    8.8503906250e+04
    1.8729930744e-02    8.8486085938e+04
    1.8739888445e-02    8.8468351562e+04
    1.8749848008e-02    8.8450812500e+04
    1.8759809434e-02    8.8433054688e+04
    1.8769772723e-02    8.8415601562e+04
    1.8779998645e-02    8.8397648438e+04
    1.8789961934e-02    8.8380257812e+04
    1.8799925223e-02    8.8363023438e+04
    1.8809890375e-02    8.8345773438e+04
    1.8819857389e-02    8.8328710938e+04
    1.8829824403e-02    8.8311593750e+04
    1.8839793280e-02    8.8294562500e+04
    1.8849762157e-02    8.8277531250e+04
    1.8859993666e-02    8.8260187500e+04
    1.8869964406e-02    8.8243382812e+04
    1.8879935145e-02    8.8226726562e+04
    1.8889905885e-02    8.8210125000e+04
    1.8899878487e-02    8.8193468750e+04
    1.8909852952e-02    8.8176687500e+04
    1.8919825554e-02    8.8160242188e+04
    1.8929801881e-02    8.8144250000e+04
    1.8939776346e-02    8.8128164062e+04
    1.8949754536e-02    8.8111523438e+04
    1.8959995359e-02    8.8095031250e+04
    1.8969977275e-02    8.8079375000e+04
    1.8979957327e-02    8.8062898438e+04
    1.8989937380e-02    8.8046789062e+04
    1.8999919295e-02    8.8031789062e+04
    1.9009903073e-02    8.8015867188e+04
    1.9019888714e-02    8.7999585938e+04
    1.9029874355e-02    8.7984367188e+04
    1.9039859995e-02    8.7968992188e+04
    1.9049845636e-02    8.7953242188e+04
    1.9059835002e-02    8.7937914062e+04
    1.9069828093e-02    8.7922812500e+04
    1.9079819322e-02    8.7907257812e+04
    1.9089812413e-02    8.7891960938e+04
    1.9099807367e-02    8.7876867188e+04
    1.9109802321e-02    8.7861867188e+04
    1.9119799137e-02    8.7846851562e+04
    1.9129797816e-02    8.7832085938e+04
    1.9139798358e-02    8.7817195312e+04
    1.9149798900e-02    8.7802289062e+04
    1.9159803167e-02    8.7787656250e+04
    1.9169807434e-02    8.7772937500e+04
    1.9179811701e-02    8.7758523438e+04
    1.9189819694e-02    8.7744070312e+04
    1.9199829549e-02    8.7729625000e+04
    1.9209841266e-02    8.7715335938e+04
    1.9219852984e-02    8.7700976562e+04
    1.9229866564e-02    8.7686843750e+04
    1.9239882007e-02    8.7672554688e+04
    1.9249899313e-02    8.7658468750e+04
    1.9259918481e-02    8.7644351562e+04
    1.9269939512e-02    8.7630570312e+04
    1.9279962406e-02    8.7616726562e+04
    1.9289985299e-02    8.7602898438e+04
    1.9299745560e-02    8.7589335938e+04
    1.9309774041e-02    8.7575851562e+04
    1.9319802523e-02    8.7562507812e+04
    1.9329832867e-02    8.7548843750e+04
    1.9339865074e-02    8.7535273438e+04
    1.9349899143e-02    8.7522375000e+04
    1.9359935075e-02    8.7508960938e+04
    1.9369971007e-02    8.7495164062e+04
    1.9379748031e-02    8.7482898438e+04
    1.9389789551e-02    8.7470148438e+04
    1.9399831071e-02    8.7456398438e+04
    1.9409874454e-02    8.7443476562e+04
    1.9419919699e-02    8.7430960938e+04
    1.9429966807e-02    8.7417914062e+04
    1.9439751282e-02    8.7405500000e+04
[...]
    1.1513981223e-01    1.0122428906e+05
    1.1514984816e-01    1.0122428906e+05
    1.1515988410e-01    1.0122427344e+05
    1.1516992003e-01    1.0122427344e+05
    1.1517995596e-01    1.0122425781e+05
    1.1518999189e-01    1.0122425000e+05
    1.1519972235e-01    1.0122425000e+05
    1.1520975828e-01    1.0122424219e+05
    1.1521979421e-01    1.0122424219e+05
    1.1522983015e-01    1.0122422656e+05
    1.1523985863e-01    1.0122422656e+05
    1.1524989456e-01    1.0122422656e+05
    1.1525993049e-01    1.0122421875e+05
    1.1526996642e-01    1.0122421094e+05
    1.1527969688e-01    1.0122421094e+05
    1.1528973281e-01    1.0122421094e+05
    1.1529976875e-01    1.0122419531e+05
    1.1530980468e-01    1.0122419531e+05
    1.1531984061e-01    1.0122418750e+05
    1.1532987654e-01    1.0122418750e+05
    1.1533991247e-01    1.0122417969e+05
    1.1534994841e-01    1.0122416406e+05
    1.1535998434e-01    1.0122416406e+05
    1.1536971480e-01    1.0122415625e+05
    1.1537975073e-01    1.0122414844e+05
    1.1538978666e-01    1.0122414844e+05
    1.1539981514e-01    1.0122413281e+05
    1.1540985107e-01    1.0122412500e+05
    1.1541988701e-01    1.0122411719e+05
    1.1542992294e-01    1.0122410156e+05
    1.1543995887e-01    1.0122410156e+05
    1.1544999480e-01    1.0122410156e+05
    1.1545972526e-01    1.0122409375e+05
    1.1546976119e-01    1.0122408594e+05
    1.1547979712e-01    1.0122408594e+05
    1.1548983306e-01    1.0122408594e+05
    1.1549986899e-01    1.0122407031e+05
    1.1550990492e-01    1.0122406250e+05
    1.1551994085e-01    1.0122405469e+05
    1.1552996933e-01    1.0122403906e+05
    1.1553970724e-01    1.0122403906e+05
    1.1554973572e-01    1.0122403906e+05
    1.1555977166e-01    1.0122403125e+05
    1.1556980759e-01    1.0122402344e+05
    1.1557984352e-01    1.0122402344e+05
    1.1558987945e-01    1.0122402344e+05
    1.1559991539e-01    1.0122400781e+05
    1.1560995132e-01    1.0122400781e+05
    1.1561998725e-01    1.0122400000e+05
    1.1562971771e-01    1.0122399219e+05
    1.1563975364e-01    1.0122397656e+05
    1.1564978957e-01    1.0122397656e+05
    1.1565982550e-01    1.0122396875e+05
    1.1566986144e-01    1.0122396094e+05
    1.1567988992e-01    1.0122396094e+05
    1.1568992585e-01    1.0122394531e+05
    1.1569996178e-01    1.0122394531e+05
    1.1570999771e-01    1.0122393750e+05
    1.1571972817e-01    1.0122392969e+05
    1.1572976410e-01    1.0122392969e+05
    1.1573980004e-01    1.0122391406e+05
    1.1574983597e-01    1.0122391406e+05
    1.1575987190e-01    1.0122391406e+05
    1.1576990783e-01    1.0122390625e+05
    1.1577994376e-01    1.0122389844e+05
    1.1578997970e-01    1.0122389844e+05
    1.1579971015e-01    1.0122388281e+05
    1.1580974609e-01    1.0122388281e+05
    1.1581978202e-01    1.0122387500e+05
    1.1582981795e-01    1.0122386719e+05
    1.1583984643e-01    1.0122385156e+05
    1.1584988236e-01    1.0122385156e+05
    1.1585991830e-01    1.0122385156e+05
    1.1586995423e-01    1.0122384375e+05
    1.1587999016e-01    1.0122383594e+05
    1.1588972062e-01    1.0122383594e+05
    1.1589975655e-01    1.0122383594e+05
    1.1590979248e-01    1.0122382031e+05
    1.1591982841e-01    1.0122381250e+05
    1.1592986435e-01    1.0122381250e+05
    1.1593990028e-01    1.0122380469e+05
    1.1594993621e-01    1.0122378906e+05
    1.1595997214e-01    1.0122378906e+05
    1.1596970260e-01    1.0122378125e+05
    1.1597973853e-01    1.0122377344e+05
    1.1598977447e-01    1.0122377344e+05
    1.1599980295e-01    1.0122375781e+05
    1.1600983888e-01    1.0122375000e+05
    1.1601987481e-01    1.0122374219e+05
    1.1602991074e-01    1.0122372656e+05
    1.1603994668e-01    1.0122372656e+05
    1.1604998261e-01    1.0122371875e+05
    1.1605971307e-01    1.0122371875e+05
    1.1606974900e-01    1.0122371094e+05
    1.1607978493e-01    1.0122371094e+05
    1.1608982086e-01    1.0122371094e+05
    1.1609985679e-01    1.0122369531e+05
    1.1610989273e-01    1.0122369531e+05
    1.1611992866e-01    1.0122368750e+05
    1.1612995714e-01    1.0122368750e+05
    1.1613999307e-01    1.0122367969e+05
    1.1614972353e-01    1.0122366406e+05
    1.1615975946e-01    1.0122366406e+05
    1.1616979539e-01    1.0122365625e+05
    1.1617983133e-01    1.0122364844e+05
    1.1618986726e-01    1.0122364844e+05
    1.1619990319e-01    1.0122363281e+05
    1.1620993912e-01    1.0122362500e+05
    1.1621997505e-01    1.0122361719e+05
    1.1622970551e-01    1.0122360156e+05
    1.1623974144e-01    1.0122360156e+05
    1.1624977738e-01    1.0122360156e+05
    1.1625981331e-01    1.0122359375e+05
    1.1626984924e-01    1.0122358594e+05
    1.1627988517e-01    1.0122358594e+05
    1.1628991365e-01    1.0122357031e+05
    1.1629994959e-01    1.0122357031e+05
    1.1630998552e-01    1.0122356250e+05
    1.1631971598e-01    1.0122355469e+05
    1.1632975191e-01    1.0122353906e+05
    1.1633978784e-01    1.0122353906e+05
    1.1634982377e-01    1.0122353906e+05
    1.1635985970e-01    1.0122353906e+05
    1.1636989564e-01    1.0122353906e+05
    1.1637993157e-01    1.0122353125e+05
    1.1638996750e-01    1.0122352344e+05
    1.1639969796e-01    1.0122352344e+05
    1.1640973389e-01    1.0122352344e+05
    1.1641976982e-01    1.0122350781e+05
    1.1642980576e-01    1.0122350000e+05
    1.1643984169e-01    1.0122349219e+05
    1.1644987017e-01    1.0122347656e+05
    1.1645990610e-01    1.0122347656e+05
    1.1646994203e-01    1.0122346875e+05
    1.1647997797e-01    1.0122346875e+05
    1.1648970842e-01    1.0122346094e+05
    1.1649974436e-01    1.0122346094e+05
    1.1650978029e-01    1.0122346094e+05
    1.1651981622e-01    1.0122346094e+05
    1.1652985215e-01    1.0122344531e+05
    1.1653988808e-01    1.0122343750e+05
    1.1654992402e-01    1.0122342969e+05
    1.1655995995e-01    1.0122341406e+05
    1.1656999588e-01    1.0122341406e+05
    1.1657972634e-01    1.0122340625e+05
    1.1658976227e-01    1.0122339844e+05
    1.1659979820e-01    1.0122339844e+05
    1.1660982668e-01    1.0122338281e+05
    1.1661986262e-01    1.0122337500e+05
    1.1662989855e-01    1.0122336719e+05
    1.1663993448e-01    1.0122336719e+05
    1.1664997041e-01    1.0122335156e+05
    1.1665970087e-01    1.0122335156e+05
    1.1666973680e-01    1.0122335156e+05
    1.1667977273e-01    1.0122335156e+05
    1.1668980867e-01    1.0122334375e+05
    1.1669984460e-01    1.0122334375e+05
    1.1670988053e-01    1.0122333594e+05
    1.1671991646e-01    1.0122333594e+05
    1.1672995239e-01    1.0122332031e+05
    1.1673998833e-01    1.0122331250e+05
    1.1674971879e-01    1.0122330469e+05
    1.1675975472e-01    1.0122328906e+05
    1.1676979065e-01    1.0122328906e+05
    1.1677981913e-01    1.0122328906e+05
    1.1678985506e-01    1.0122328125e+05
    1.1679989100e-01    1.0122327344e+05
    1.1680992693e-01    1.0122327344e+05
    1.1681996286e-01    1.0122325781e+05
    1.1682999879e-01    1.0122325000e+05
    1.1683972925e-01    1.0122324219e+05
    1.1684976518e-01    1.0122324219e+05
    1.1685980111e-01    1.0122322656e+05
    1.1686983705e-01    1.0122322656e+05
    1.1687987298e-01    1.0122322656e+05
    1.1688990891e-01    1.0122321875e+05
    1.1689994484e-01    1.0122321094e+05
    1.1690998077e-01    1.0122321094e+05
    1.1691971123e-01    1.0122321094e+05
    1.1692974716e-01    1.0122319531e+05
    1.1693977565e-01    1.0122319531e+05
    1.1694981158e-01    1.0122318750e+05
    1.1695984751e-01    1.0122317969e+05
    1.1696988344e-01    1.0122316406e+05
    1.1697991937e-01    1.0122316406e+05
    1.1698995531e-01    1.0122316406e+05
    1.1699999124e-01    1.0122315625e+05
    1.1700972170e-01    1.0122314844e+05
    1.1701975763e-01    1.0122314844e+05
    1.1702979356e-01    1.0122314844e+05
    1.1703982949e-01    1.0122313281e+05
    1.1704986542e-01    1.0122312500e+05
    1.1705990136e-01    1.0122311719e+05
    1.1706993729e-01    1.0122310156e+05
    1.1707996577e-01    1.0122310156e+05
    1.1708970368e-01    1.0122310156e+05
    1.1709973216e-01    1.0122309375e+05
    1.1710976809e-01    1.0122308594e+05
    1.1711980402e-01    1.0122308594e+05
    1.1712983996e-01    1.0122308594e+05
    1.1713987589e-01    1.0122307031e+05
    1.1714991182e-01    1.0122306250e+05
    1.1715994775e-01    1.0122306250e+05
    1.1716998369e-01    1.0122305469e+05
    1.1717971414e-01    1.0122303906e+05
    1.1718975008e-01    1.0122303906e+05
    1.1719978601e-01    1.0122303125e+05
    1.1720982194e-01    1.0122303125e+05
    1.1721985787e-01    1.0122302344e+05
    1.1722989380e-01    1.0122302344e+05
    1.1723992229e-01    1.0122300781e+05
    1.1724995822e-01    1.0122300781e+05
    1.1725999415e-01    1.0122300000e+05
    1.1726972461e-01    1.0122299219e+05
    1.1727976054e-01    1.0122297656e+05
    1.1728979647e-01    1.0122297656e+05
    1.1729983240e-01    1.0122297656e+05
    1.1730986834e-01    1.0122296875e+05
    1.1731990427e-01    1.0122296094e+05
    1.1732994020e-01    1.0122296094e+05
    1.1733997613e-01    1.0122296094e+05
    1.1734970659e-01    1.0122294531e+05
    1.1735974252e-01    1.0122293750e+05
    1.1736977845e-01    1.0122293750e+05
    1.1737981439e-01    1.0122292969e+05
    1.1738985032e-01    1.0122291406e+05
    1.1739987880e-01    1.0122291406e+05
    1.1740991473e-01    1.0122290625e+05
    1.1741995066e-01    1.0122289844e+05
    1.1742998660e-01    1.0122289844e+05
    1.1743971705e-01    1.0122289844e+05
    1.1744975299e-01    1.0122288281e+05
    1.1745978892e-01    1.0122288281e+05
    1.1746982485e-01    1.0122287500e+05
    1.1747986078e-01    1.0122287500e+05
    1.1748989671e-01    1.0122286719e+05
    1.1749993265e-01    1.0122285156e+05
    1.1750996858e-01    1.0122285156e+05
    1.1751969904e-01    1.0122284375e+05
    1.1752973497e-01    1.0122284375e+05
    1.1753977090e-01    1.0122283594e+05
    1.1754980683e-01    1.0122283594e+05
    1.1755983531e-01    1.0122282031e+05
    1.1756987125e-01    1.0122281250e+05
    1.1757990718e-01    1.0122280469e+05
    1.1758994311e-01    1.0122280469e+05
    1.1759997904e-01    1.0122278906e+05
    1.1760970950e-01    1.0122278906e+05
    1.1761974543e-01    1.0122278125e+05
    1.1762978137e-01    1.0122278125e+05
    1.1763981730e-01    1.0122277344e+05
    1.1764985323e-01    1.0122277344e+05
    1.1765988916e-01    1.0122277344e+05
    1.1766992509e-01    1.0122275781e+05
    1.1767996103e-01    1.0122275000e+05
    1.1768999696e-01    1.0122274219e+05
    1.1769972742e-01    1.0122274219e+05
    1.1770976335e-01    1.0122272656e+05
    1.1771979183e-01    1.0122272656e+05
    1.1772982776e-01    1.0122271875e+05
    1.1773986369e-01    1.0122271875e+05
    1.1774989963e-01    1.0122271094e+05
    1.1775993556e-01    1.0122271094e+05
    1.1776997149e-01    1.0122271094e+05
    1.1777970195e-01    1.0122269531e+05
    1.1778973788e-01    1.0122268750e+05
    1.1779977381e-01    1.0122267969e+05
    1.1780980974e-01    1.0122267969e+05
    1.1781984568e-01    1.0122266406e+05
    1.1782988161e-01    1.0122266406e+05
    1.1783991754e-01    1.0122266406e+05
    1.1784995347e-01    1.0122265625e+05
    1.1785998195e-01    1.0122264844e+05
    1.1786971986e-01    1.0122264844e+05
    1.1787974834e-01    1.0122263281e+05
    1.1788978428e-01    1.0122263281e+05
    1.1789982021e-01    1.0122262500e+05
    1.1790985614e-01    1.0122261719e+05
    1.1791989207e-01    1.0122260156e+05
    1.1792992800e-01    1.0122260156e+05
    1.1793996394e-01    1.0122260156e+05
    1.1794999987e-01    1.0122259375e+05
    1.1795973033e-01    1.0122259375e+05
    1.1796976626e-01    1.0122258594e+05
    1.1797980219e-01    1.0122258594e+05
    1.1798983812e-01    1.0122258594e+05
    1.1799987406e-01    1.0122257031e+05
    1.1800990999e-01    1.0122256250e+05
    1.1801993847e-01    1.0122256250e+05
    1.1802997440e-01    1.0122255469e+05
    1.1803970486e-01    1.0122253906e+05
    1.1804974079e-01    1.0122253906e+05
    1.1805977672e-01    1.0122253906e+05
    1.1806981266e-01    1.0122253125e+05
    1.1807984859e-01    1.0122252344e+05
    1.1808988452e-01    1.0122252344e+05
    1.1809992045e-01    1.0122252344e+05
    1.1810995638e-01    1.0122250781e+05
    1.1811999232e-01    1.0122250000e+05
    1.1812972277e-01    1.0122250000e+05
    1.1813975871e-01    1.0122249219e+05
    1.1814979464e-01    1.0122247656e+05
    1.1815983057e-01    1.0122247656e+05
    1.1816986650e-01    1.0122247656e+05
    1.1817989498e-01    1.0122246875e+05
    1.1818993092e-01    1.0122246094e+05
    1.1819996685e-01    1.0122246094e+05
    1.1820969731e-01    1.0122246094e+05
    1.1821973324e-01    1.0122244531e+05
    1.1822976917e-01    1.0122243750e+05
    1.1823980510e-01    1.0122242969e+05
    1.1824984103e-01    1.0122241406e+05
    1.1825987697e-01    1.0122241406e+05
    1.1826991290e-01    1.0122241406e+05
    1.1827994883e-01    1.0122240625e+05
    1.1828998476e-01    1.0122239844e+05
    1.1829971522e-01    1.0122239844e+05
    1.1830975115e-01    1.0122239844e+05
    1.1831978709e-01    1.0122238281e+05
    1.1832982302e-01    1.0122237500e+05
    1.1833985150e-01    1.0122236719e+05
    1.1834988743e-01    1.0122236719e+05
    1.1835992336e-01    1.0122235156e+05
    1.1836995929e-01    1.0122235156e+05
    1.1837999523e-01    1.0122235156e+05
    1.1838972569e-01    1.0122234375e+05
    1.1839976162e-01    1.0122233594e+05
    1.1840979755e-01    1.0122233594e+05
    1.1841983348e-01    1.0122233594e+05
    1.1842986941e-01    1.0122232031e+05
    1.1843990535e-01    1.0122232031e+05
    1.1844994128e-01    1.0122231250e+05
    1.1845997721e-01    1.0122230469e+05
    1.1846970767e-01    1.0122228906e+05
    1.1847974360e-01    1.0122228906e+05
    1.1848977953e-01    1.0122228125e+05
    1.1849980801e-01    1.0122227344e+05
    1.1850984395e-01    1.0122227344e+05
    1.1851987988e-01    1.0122227344e+05
    1.1852991581e-01    1.0122225781e+05
    1.1853995174e-01    1.0122225000e+05
    1.1854998767e-01    1.0122225000e+05
    1.1855971813e-01    1.0122224219e+05
    1.1856975406e-01    1.0122224219e+05
    1.1857979000e-01    1.0122222656e+05
    1.1858982593e-01    1.0122222656e+05
    1.1859986186e-01    1.0122222656e+05
    1.1860989779e-01    1.0122222656e+05
    1.1861993372e-01    1.0122221875e+05
    1.1862996966e-01    1.0122221094e+05
    1.1863970011e-01    1.0122221094e+05
    1.1864973605e-01    1.0122221094e+05
    1.1865977198e-01    1.0122219531e+05
    1.1866980046e-01    1.0122219531e+05
    1.1867983639e-01    1.0122218750e+05
    1.1868987232e-01    1.0122217969e+05
    1.1869990826e-01    1.0122217969e+05
    1.1870994419e-01    1.0122216406e+05
    1.1871998012e-01    1.0122216406e+05
    1.1872971058e-01    1.0122216406e+05
    1.1873974651e-01    1.0122216406e+05
    1.1874978244e-01    1.0122215625e+05
    1.1875981838e-01    1.0122215625e+05
    1.1876985431e-01    1.0122214844e+05
    1.1877989024e-01    1.0122214844e+05
    1.1878992617e-01    1.0122213281e+05
    1.1879996210e-01    1.0122212500e+05
    1.1880999058e-01    1.0122211719e+05
    1.1881972849e-01    1.0122210156e+05
    1.1882975698e-01    1.0122210156e+05
    1.1883979291e-01    1.0122209375e+05
    1.1884982884e-01    1.0122209375e+05
    1.1885986477e-01    1.0122208594e+05
    1.1886990070e-01    1.0122208594e+05
    1.1887993664e-01    1.0122207031e+05
    1.1888997257e-01    1.0122206250e+05
    1.1889970303e-01    1.0122205469e+05
    1.1890973896e-01    1.0122203906e+05
    1.1891977489e-01    1.0122203906e+05
    1.1892981082e-01    1.0122202344e+05
    1.1893984675e-01    1.0122202344e+05
    1.1894988269e-01    1.0122202344e+05
    1.1895991862e-01    1.0122202344e+05
    1.1896994710e-01    1.0122200781e+05
    1.1897998303e-01    1.0122200781e+05
    1.1898971349e-01    1.0122200781e+05
    1.1899974942e-01    1.0122200781e+05
    1.1900978535e-01    1.0122200781e+05
    1.1901982129e-01    1.0122200000e+05
    1.1902985722e-01    1.0122200000e+05
    1.1903989315e-01    1.0122199219e+05
    1.1904992908e-01    1.0122199219e+05
    1.1905996501e-01    1.0122197656e+05
    1.1907000095e-01    1.0122197656e+05
    1.1907973140e-01    1.0122196875e+05
    1.1908976734e-01    1.0122196094e+05
    1.1909980327e-01    1.0122196094e+05
    1.1910983920e-01    1.0122194531e+05
    1.1911987513e-01    1.0122193750e+05
    1.1912990361e-01    1.0122193750e+05
    1.1913993955e-01    1.0122192969e+05
    1.1914997548e-01    1.0122191406e+05
    1.1915970594e-01    1.0122191406e+05
    1.1916974187e-01    1.0122191406e+05
    1.1917977780e-01    1.0122190625e+05
    1.1918981373e-01    1.0122189844e+05
    1.1919984967e-01    1.0122189844e+05
    1.1920988560e-01    1.0122189844e+05
    1.1921992153e-01    1.0122188281e+05
    1.1922995746e-01    1.0122187500e+05
    1.1923999339e-01    1.0122186719e+05
    1.1924972385e-01    1.0122186719e+05
    1.1925975978e-01    1.0122185156e+05
    1.1926979572e-01    1.0122185156e+05
    1.1927983165e-01    1.0122185156e+05
    1.1928986013e-01    1.0122184375e+05
    1.1929989606e-01    1.0122184375e+05
    1.1930993199e-01    1.0122183594e+05
    1.1931996793e-01    1.0122183594e+05
    1.1932969838e-01    1.0122183594e+05
    1.1933973432e-01    1.0122182031e+05
    1.1934977025e-01    1.0122181250e+05
    1.1935980618e-01    1.0122181250e+05
    1.1936984211e-01    1.0122180469e+05
    1.1937987804e-01    1.0122178906e+05
    1.1938991398e-01    1.0122178906e+05
    1.1939994991e-01    1.0122178906e+05
    1.1940998584e-01    1.0122178125e+05
    1.1941971630e-01    1.0122177344e+05
    1.1942975223e-01    1.0122177344e+05
    1.1943978816e-01    1.0122177344e+05
    1.1944982409e-01    1.0122175781e+05
    1.1945985258e-01    1.0122175781e+05
    1.1946988851e-01    1.0122175000e+05
    1.1947992444e-01    1.0122174219e+05
    1.1948996037e-01    1.0122174219e+05
    1.1949999630e-01    1.0122172656e+05
    1.1950972676e-01    1.0122172656e+05
    1.1951976269e-01    1.0122171875e+05
    1.1952979863e-01    1.0122171875e+05
    1.1953983456e-01    1.0122171094e+05
    1.1954987049e-01    1.0122171094e+05
    1.1955990642e-01    1.0122171094e+05
    1.1956994236e-01    1.0122169531e+05
    1.1957997829e-01    1.0122168750e+05
    1.1958970875e-01    1.0122168750e+05
    1.1959974468e-01    1.0122167969e+05
    1.1960978061e-01    1.0122167969e+05
    1.1961981654e-01    1.0122166406e+05
    1.1962984502e-01    1.0122166406e+05
    1.1963988096e-01    1.0122166406e+05
    1.1964991689e-01    1.0122165625e+05
    1.1965995282e-01    1.0122165625e+05
    1.1966998875e-01    1.0122164844e+05
    1.1967971921e-01    1.0122164844e+05
    1.1968975514e-01    1.0122164844e+05
    1.1969979107e-01    1.0122163281e+05
    1.1970982701e-01    1.0122162500e+05
    1.1971986294e-01    1.0122161719e+05
    1.1972989887e-01    1.0122161719e+05
    1.1973993480e-01    1.0122160156e+05
    1.1974997073e-01    1.0122160156e+05
    1.1975970119e-01    1.0122159375e+05
    1.1976973712e-01    1.0122158594e+05
    1.1977977306e-01    1.0122158594e+05
    1.1978980154e-01    1.0122158594e+05
    1.1979983747e-01    1.0122157031e+05
    1.1980987340e-01    1.0122157031e+05
    1.1981990933e-01    1.0122156250e+05
    1.1982994527e-01    1.0122155469e+05
    1.1983998120e-01    1.0122153906e+05
    1.1984971166e-01    1.0122153906e+05
    1.1985974759e-01    1.0122153906e+05
    1.1986978352e-01    1.0122153125e+05
    1.1987981945e-01    1.0122152344e+05
    1.1988985538e-01    1.0122152344e+05
    1.1989989132e-01    1.0122150781e+05
    1.1990992725e-01    1.0122150781e+05
    1.1991996318e-01    1.0122150000e+05
    1.1992999911e-01    1.0122150000e+05
    1.1993972957e-01    1.0122150000e+05
    1.1994976550e-01    1.0122150000e+05
    1.1995980144e-01    1.0122149219e+05
    1.1996982992e-01    1.0122147656e+05
    1.1997986585e-01    1.0122147656e+05
    1.1998990178e-01    1.0122147656e+05
    1.1999993771e-01    1.0122146875e+05
endcurve
