Curveplot
LS-DYNA keyword deck by LS-PrePost                          
Time
Pressure
Defined Connection
Pressure @ 1 #pts=12001
* Minval=     1.7414604187e+02 at time=         0.0034999582
* Maxval=     7.8260525000e+06 at time=         0.0002399410
    0.0000000000e+00    1.0120000000e+05
    9.9485314422e-06    1.0120000000e+05
    1.9897433958e-05    1.0120000000e+05
    2.9972803532e-05    1.0120000000e+05
    3.9975959226e-05    1.0120000000e+05
    4.9980360927e-05    1.0120000000e+05
    5.9958565544e-05    1.0120000000e+05
    6.9963512942e-05    1.0120000000e+05
    7.9998069850e-05    1.0120000000e+05
    8.9948021923e-05    1.0120000000e+05
    9.9956749182e-05    1.0120000000e+05
    1.0996017954e-04    1.0120000000e+05
    1.1994857050e-04    1.0120000000e+05
    1.2997980230e-04    1.0120000000e+05
    1.3997688075e-04    1.0120000000e+05
    1.4993043442e-04    1.0120000000e+05
    1.5998030722e-04    1.0120000000e+05
    1.6997302009e-04    1.0120000000e+05
    1.7997615214e-04    1.0120000000e+05
    1.8998314044e-04    1.0120000000e+05
    1.9998787320e-04    1.0120000000e+05
    2.0998425316e-04    1.0120000000e+05
    2.1996557189e-04    1.0120000000e+05
    2.2992517916e-04    1.0120000000e+05
    2.3994097137e-04    7.8260525000e+06
    2.4992422550e-04    7.1535145000e+06
    2.5995491887e-04    6.2506555000e+06
    2.6994250948e-04    5.5614260000e+06
    2.7996877907e-04    4.9175060000e+06
    2.8994039167e-04    3.1601497500e+06
    2.9994075885e-04    1.4809440625e+05
    3.0996624264e-04    1.5723170312e+05
    3.1992213917e-04    1.6922514062e+05
    3.2998749521e-04    1.8550023438e+05
    3.3996746060e-04    2.0049542188e+05
    3.4995019087e-04    2.1422826562e+05
    3.5992392804e-04    2.2639481250e+05
    3.6998389987e-04    2.3679839062e+05
    3.7993362639e-04    2.4520335938e+05
    3.8996955846e-04    2.5162195312e+05
    3.9999128785e-04    2.5597131250e+05
    4.0999712655e-04    2.5835064062e+05
    4.1998372762e-04    2.5878107812e+05
    4.2995274998e-04    2.5751682812e+05
    4.3990078848e-04    2.5465506250e+05
    4.4993017218e-04    2.5035723438e+05
    4.5993542881e-04    2.4487887500e+05
    4.6991839190e-04    2.3842520312e+05
    4.7998203081e-04    2.3110126562e+05
    4.8991298536e-04    2.2326393750e+05
    4.9991952255e-04    2.1492417188e+05
    5.0990108866e-04    2.0632192188e+05
    5.1996216644e-04    1.9750473438e+05
    5.2999315085e-04    1.8868435938e+05
    5.3999229567e-04    1.7996139062e+05
    5.4995605024e-04    1.7141668750e+05
    5.5988674285e-04    1.6310850000e+05
    5.6989473524e-04    1.5499768750e+05
    5.7998095872e-04    1.4712489062e+05
    5.8991438709e-04    1.3969004688e+05
    5.9992203023e-04    1.3253881250e+05
    6.0989160556e-04    1.2575663281e+05
    6.1993772397e-04    1.1927508594e+05
    6.2994187465e-04    1.1317710156e+05
    6.3990231138e-04    1.0744717969e+05
    6.4993620617e-04    1.0200368750e+05
    6.5992691088e-04    9.6902812500e+04
    6.6999351839e-04    9.2078164062e+04
    6.7988870433e-04    8.7630617188e+04
    6.8998307688e-04    8.3372906250e+04
    6.9990236079e-04    7.9438835938e+04
    7.0989329834e-04    7.5704460938e+04
    7.1996188490e-04    7.2156148438e+04
    7.2997761890e-04    6.8828296875e+04
    7.3993869592e-04    6.5707039062e+04
    7.4997392949e-04    6.2740410156e+04
    7.5995252701e-04    5.9955300781e+04
    7.6986971544e-04    5.7338582031e+04
    7.7999656787e-04    5.4810953125e+04
    7.8992987983e-04    5.2463386719e+04
    7.9993624240e-04    5.0221597656e+04
    8.0987979891e-04    4.8108144531e+04
    8.1989617320e-04    4.6087003906e+04
    8.2998623839e-04    4.4153636719e+04
    8.3986844402e-04    4.2354046875e+04
    8.4996584337e-04    4.0605722656e+04
    8.5999595467e-04    3.8954269531e+04
    8.6995656602e-04    3.7393519531e+04
    8.7998923846e-04    3.5896835938e+04
    8.8995002443e-04    3.4481570312e+04
    8.9998252224e-04    3.3123382812e+04
    9.0994074708e-04    3.1838365234e+04
    9.1996369883e-04    3.0604990234e+04
    9.2991563724e-04    2.9436771484e+04
    9.3993917108e-04    2.8313890625e+04
    9.4988330966e-04    2.7250431641e+04
    9.5989787951e-04    2.6227671875e+04
    9.6998375375e-04    2.5244054688e+04
    9.7998732235e-04    2.4312162109e+04
    9.8990602419e-04    2.3428966797e+04
    9.9989410955e-04    2.2578599609e+04
    1.0099482024e-03    2.1760160156e+04
    1.0199182434e-03    2.0983919922e+04
    1.0299581336e-03    2.0236027344e+04
    1.0399072198e-03    1.9526671875e+04
    1.0499251075e-03    1.8842779297e+04
    1.0598492809e-03    1.8193851562e+04
    1.0698415572e-03    1.7567785156e+04
    1.0799026350e-03    1.6963746094e+04
    1.0898666224e-03    1.6390316406e+04
    1.0998984799e-03    1.5836688477e+04
    1.1099991389e-03    1.5302149414e+04
    1.1199992150e-03    1.4794479492e+04
    1.1298945174e-03    1.4312219727e+04
    1.1398531497e-03    1.3846155273e+04
    1.1498830281e-03    1.3395367188e+04
    1.1599805439e-03    1.2959541992e+04
    1.1699703755e-03    1.2545325195e+04
    1.1798498454e-03    1.2151523438e+04
    1.1899723904e-03    1.1763627930e+04
    1.1999835260e-03    1.1394831055e+04
    1.2098803418e-03    1.1044093750e+04
    1.2198416516e-03    1.0704358398e+04
    1.2298682705e-03    1.0375269531e+04
    1.2399608968e-03    1.0056483398e+04
    1.2499347795e-03    9.7532021484e+03
    1.2599736219e-03    9.4592265625e+03
    1.2698902283e-03    9.1794687500e+03
    1.2798708631e-03    8.9081259766e+03
    1.2899159919e-03    8.6449384766e+03
    1.2998308521e-03    8.3944941406e+03
    1.3098078780e-03    8.1514653320e+03
    1.3198542874e-03    7.9154545898e+03
    1.3299654238e-03    7.6863793945e+03
    1.3399458257e-03    7.4682465820e+03
    1.3499896741e-03    7.2563959961e+03
    1.3598991791e-03    7.0546108398e+03
    1.3698710827e-03    6.8585141602e+03
    1.3799061999e-03    6.6679379883e+03
    1.3898025500e-03    6.4863725586e+03
    1.3999649091e-03    6.3062553711e+03
    1.4099872205e-03    6.1346459961e+03
    1.4198664576e-03    5.9711147461e+03
    1.4298071619e-03    5.8119838867e+03
    1.4398101484e-03    5.6571293945e+03
    1.4498761157e-03    5.5064311523e+03
    1.4597937698e-03    5.3627939453e+03
    1.4699861640e-03    5.2199887695e+03
    1.4798148768e-03    5.0867246094e+03
    1.4899199596e-03    4.9540883789e+03
    1.4998714905e-03    4.8276401367e+03
    1.5098848380e-03    4.7044277344e+03
    1.5199608169e-03    4.5843642578e+03
    1.5298789367e-03    4.4698789062e+03
    1.5398584073e-03    4.3582519531e+03
    1.5498998109e-03    4.2494086914e+03
    1.5597788151e-03    4.1456054688e+03
    1.5699447831e-03    4.0420612793e+03
    1.5799467219e-03    3.9433078613e+03
    1.5897820704e-03    3.8491125488e+03
    1.5999071766e-03    3.7550495605e+03
    1.6098645283e-03    3.6653210449e+03
    1.6198829981e-03    3.5777180176e+03
    1.6299628187e-03    3.4921970215e+03
    1.6398692969e-03    3.4106140137e+03
    1.6498368932e-03    3.3309091797e+03
    1.6598663060e-03    3.2530402832e+03
    1.6699578846e-03    3.1769658203e+03
    1.6798694851e-03    3.1043945312e+03
    1.6898413887e-03    3.0334558105e+03
    1.6998751089e-03    2.9641062012e+03
    1.7099722754e-03    2.8963017578e+03
    1.7198827118e-03    2.8316232910e+03
    1.7298548482e-03    2.7683508301e+03
    1.7398875207e-03    2.7064631348e+03
    1.7499835230e-03    2.6459189453e+03
    1.7598872073e-03    2.5881613770e+03
    1.7698514275e-03    2.5316298828e+03
    1.7798775807e-03    2.4762941895e+03
    1.7899660161e-03    2.4221311035e+03
    1.7998563126e-03    2.3704597168e+03
    1.8098071450e-03    2.3198537598e+03
    1.8198194448e-03    2.2702902832e+03
    1.8298940267e-03    2.2217458496e+03
    1.8397641834e-03    2.1754375000e+03
    1.8499636790e-03    2.1288435059e+03
    1.8599570030e-03    2.0843950195e+03
    1.8697399646e-03    2.0419989014e+03
    1.8798565725e-03    1.9992855225e+03
    1.8897610717e-03    1.9585426025e+03
    1.8997266889e-03    1.9185911865e+03
    1.9097540062e-03    1.8794149170e+03
    1.9198443042e-03    1.8409967041e+03
    1.9299982814e-03    1.8033222656e+03
    1.9399320008e-03    1.7673931885e+03
    1.9499274204e-03    1.7321400146e+03
    1.9599855877e-03    1.6975488281e+03
    1.9698168617e-03    1.6645679932e+03
    1.9797091372e-03    1.6321888428e+03
    1.9899567124e-03    1.5994722900e+03
    1.9999747165e-03    1.5682781982e+03
    2.0097584929e-03    1.5385447998e+03
    2.0199019928e-03    1.5084583740e+03
    2.0298091695e-03    1.4797803955e+03
    2.0397715271e-03    1.4516264648e+03
    2.0498009399e-03    1.4239589844e+03
    2.0598971751e-03    1.3967690430e+03
    2.0697496366e-03    1.3708598633e+03
    2.0799743943e-03    1.3446040039e+03
    2.0899530500e-03    1.3195843506e+03
    2.0999952685e-03    1.2949908447e+03
    2.1097850986e-03    1.2715651855e+03
    2.1199553739e-03    1.2477884521e+03
    2.1298711654e-03    1.2251403809e+03
    2.1398500539e-03    1.2028651123e+03
    2.1498929709e-03    1.1809564209e+03
    2.1596741863e-03    1.1600974121e+03
    2.1698465571e-03    1.1388909912e+03
    2.1797541995e-03    1.1187009277e+03
    2.1897261031e-03    1.0988309326e+03
    2.1997622680e-03    1.0792768555e+03
    2.2098645568e-03    1.0600324707e+03
    2.2196932696e-03    1.0417199707e+03
    2.2299273405e-03    1.0230710449e+03
    2.2398822475e-03    1.0053295288e+03
    2.2499028128e-03    9.8786053467e+02
    2.2599927615e-03    9.7065209961e+02
    2.2697986569e-03    9.5428656006e+02
    2.2796683479e-03    9.3816229248e+02
    2.2899585310e-03    9.2171264648e+02
    2.2999609355e-03    9.0606811523e+02
    2.3096695077e-03    8.9120037842e+02
    2.3198041599e-03    8.7600433350e+02
    2.3296419531e-03    8.6156268311e+02
    2.3399132770e-03    8.4680218506e+02
    2.3498849478e-03    8.3277374268e+02
    2.3599241395e-03    8.1894390869e+02
    2.3696559947e-03    8.0581072998e+02
    2.3798304610e-03    7.9236151123e+02
    2.3896947969e-03    7.7958978271e+02
    2.3996215314e-03    7.6699633789e+02
    2.4096195120e-03    7.5457049561e+02
    2.4196871091e-03    7.4231127930e+02
    2.4298247881e-03    7.3021801758e+02
    2.4396397639e-03    7.1874420166e+02
    2.4499185383e-03    7.0696954346e+02
    2.4598715827e-03    6.9579766846e+02
    2.4698937777e-03    6.8477081299e+02
    2.4799865205e-03    6.7388696289e+02
    2.4897435214e-03    6.6357092285e+02
    2.4999782909e-03    6.5296124268e+02
    2.5098738261e-03    6.4290496826e+02
    2.5198345538e-03    6.3297784424e+02
    2.5298660621e-03    6.2317364502e+02
    2.5399748702e-03    6.1348602295e+02
    2.5497314055e-03    6.0431445312e+02
    2.5599854998e-03    5.9485968018e+02
    2.5698835962e-03    5.8590820312e+02
    2.5798396673e-03    5.7707525635e+02
    2.5898450986e-03    5.6836560059e+02
    2.5998919737e-03    5.5978521729e+02
    2.6099719107e-03    5.5133911133e+02
    2.6196364779e-03    5.4338793945e+02
    2.6297753211e-03    5.3520581055e+02
    2.6399211492e-03    5.2715039062e+02
    2.6496450882e-03    5.1958471680e+02
    2.6598421391e-03    5.1181826782e+02
    2.6696035638e-03    5.0450964355e+02
    2.6797896717e-03    4.9698812866e+02
    2.6895732153e-03    4.8994412231e+02
    2.6997649111e-03    4.8269107056e+02
    2.7099822182e-03    4.7558657837e+02
    2.7197354939e-03    4.6892175293e+02
    2.7299283538e-03    4.6206869507e+02
    2.7396955993e-03    4.5563537598e+02
    2.7498900890e-03    4.4903335571e+02
    2.7596508153e-03    4.4283572388e+02
    2.7698450722e-03    4.3647280884e+02
    2.7795718051e-03    4.3048471069e+02
    2.7897653636e-03    4.2434823608e+02
    2.7999405283e-03    4.1830264282e+02
    2.8096770402e-03    4.1263476562e+02
    2.8198326472e-03    4.0682199097e+02
    2.8295575175e-03    4.0136007690e+02
    2.8397699352e-03    3.9571585083e+02
    2.8499232139e-03    3.9021133423e+02
    2.8595940676e-03    3.8505276489e+02
    2.8697163798e-03    3.7973666382e+02
    2.8798447456e-03    3.7451016235e+02
    2.8899782337e-03    3.6938461304e+02
    2.8996844776e-03    3.6454434204e+02
    2.9099027161e-03    3.5953930664e+02
    2.9197006952e-03    3.5484091187e+02
    2.9299170710e-03    3.5000582886e+02
    2.9396906029e-03    3.4543920898e+02
    2.9499584343e-03    3.4074093628e+02
    2.9598036781e-03    3.3631045532e+02
    2.9696463607e-03    3.3195745850e+02
    2.9799533077e-03    3.2746707153e+02
    2.9898216017e-03    3.2324310303e+02
    2.9997178353e-03    3.1907763672e+02
    3.0096219853e-03    3.1497521973e+02
    3.0199626926e-03    3.1075076294e+02
    3.0298768543e-03    3.0677593994e+02
    3.0397947412e-03    3.0286437988e+02
    3.0497179832e-03    2.9901541138e+02
    3.0596419238e-03    2.9522900391e+02
    3.0699851923e-03    2.9133364868e+02
    3.0798839871e-03    2.8767550659e+02
    3.0897764955e-03    2.8407809448e+02
    3.0996392015e-03    2.8054556274e+02
    3.1099217013e-03    2.7691754150e+02
    3.1197404023e-03    2.7351119995e+02
    3.1299646944e-03    2.7001742554e+02
    3.1397126149e-03    2.6674023438e+02
    3.1498577446e-03    2.6338128662e+02
    3.1599502545e-03    2.6009268188e+02
    3.1699822284e-03    2.5687478638e+02
    3.1799571589e-03    2.5372454834e+02
    3.1898734160e-03    2.5064091492e+02
    3.1997312326e-03    2.4762202454e+02
    3.2099564560e-03    2.4453877258e+02
    3.2196973916e-03    2.4164624023e+02
    3.2298022415e-03    2.3869104004e+02
    3.2398442272e-03    2.3579911804e+02
    3.2498291694e-03    2.3296717834e+02
    3.2597545069e-03    2.3019438171e+02
    3.2696221024e-03    2.2747883606e+02
    3.2798387110e-03    2.2470945740e+02
    3.2899940852e-03    2.2199867249e+02
    3.2996851951e-03    2.1944999695e+02
    3.3097183332e-03    2.1685005188e+02
    3.3196937293e-03    2.1430329895e+02
    3.3296097536e-03    2.1180894470e+02
    3.3398601227e-03    2.0926875305e+02
    3.3496569376e-03    2.0687670898e+02
    3.3597843722e-03    2.0443995667e+02
    3.3698498737e-03    2.0205372620e+02
    3.3798522782e-03    1.9971714783e+02
    3.3897962421e-03    1.9742774963e+02
    3.3996803686e-03    1.9518482971e+02
    3.4098813776e-03    1.9290345764e+02
    3.4196444321e-03    1.9075134277e+02
    3.4297213424e-03    1.8856166077e+02
    3.4397335257e-03    1.8641728210e+02
    3.4496837761e-03    1.8431657410e+02
    3.4599397331e-03    1.8218225098e+02
    3.4697677474e-03    1.8016619873e+02
    3.4798954148e-03    1.7811785889e+02
    3.4899590537e-03    1.7611151123e+02
    3.4999581985e-03    1.7414604187e+02
    3.5098919179e-03    4.6641127930e+03
    3.5197637044e-03    2.5001837891e+04
    3.5299228039e-03    2.5495458984e+04
    3.5396683961e-03    2.5963326172e+04
    3.5496968776e-03    2.6438896484e+04
    3.5596594680e-03    2.6906130859e+04
    3.5698970314e-03    2.7381115234e+04
    3.5797269084e-03    2.7832388672e+04
    3.5898275673e-03    2.8291259766e+04
    3.5998595413e-03    2.8742458984e+04
    3.6098230630e-03    2.9186445312e+04
    3.6197183654e-03    2.9623564453e+04
    3.6298730411e-03    3.0068365234e+04
    3.6399555393e-03    3.0506447266e+04
    3.6499665584e-03    3.0938138672e+04
    3.6599060986e-03    3.1363794922e+04
    3.6697746255e-03    3.1783853516e+04
    3.6798876245e-03    3.2212025391e+04
    3.6899254192e-03    3.2634935547e+04
    3.6998887081e-03    3.3052988281e+04
    3.7097772583e-03    3.3466718750e+04
    3.7198972423e-03    3.3889265625e+04
    3.7299380638e-03    3.4307785156e+04
    3.7399006542e-03    3.4722367188e+04
    3.7497845478e-03    3.5133250000e+04
    3.7598863710e-03    3.5553015625e+04
    3.7699053064e-03    3.5969359375e+04
    3.7798413541e-03    3.6382316406e+04
    3.7899832241e-03    3.6803796875e+04
    3.7997509353e-03    3.7209597656e+04
    3.8097198121e-03    3.7623527344e+04
    3.8198821712e-03    3.8045324219e+04
    3.8299520966e-03    3.8463312500e+04
    3.8399288896e-03    3.8877546875e+04
    3.8498130161e-03    3.9287996094e+04
    3.8598740939e-03    3.9705906250e+04
    3.8698369171e-03    4.0119843750e+04
    3.8799659815e-03    4.0540750000e+04
    3.8899907377e-03    4.0957339844e+04
    3.8999104872e-03    4.1369617188e+04
    3.9099818096e-03    4.1788242188e+04
    3.9199413732e-03    4.2202253906e+04
    3.9297882468e-03    4.2611679688e+04
    3.9397706278e-03    4.3026957031e+04
    3.9498787373e-03    4.3447781250e+04
    3.9598601870e-03    4.3863707031e+04
    3.9699529298e-03    4.4284714844e+04
    3.9799096994e-03    4.4700359375e+04
    3.9899623953e-03    4.5119859375e+04
    3.9998698048e-03    4.5533027344e+04
    4.0098559111e-03    4.5949496094e+04
    4.0199076757e-03    4.6369246094e+04
    4.0297936648e-03    4.6782714844e+04
    4.0399390273e-03    4.7207394531e+04
    4.0498971939e-03    4.7624406250e+04
    4.0598697960e-03    4.8042363281e+04
    4.0698396042e-03    4.8460769531e+04
    4.0799849667e-03    4.8887062500e+04
    4.0898863226e-03    4.9303300781e+04
    4.0999092162e-03    4.9724597656e+04
    4.1098319925e-03    5.0141812500e+04
    4.1199745610e-03    5.0568972656e+04
    4.1299280711e-03    5.0989140625e+04
    4.1399737820e-03    5.1413917969e+04
    4.1498616338e-03    5.1832324219e+04
    4.1599287651e-03    5.2258562500e+04
    4.1699567810e-03    5.2683605469e+04
    4.1799847968e-03    5.3109542969e+04
    4.1899648495e-03    5.3535031250e+04
    4.1999239475e-03    5.3956046875e+04
    4.2098881677e-03    5.4376714844e+04
    4.2199734598e-03    5.4805015625e+04
    4.2299386114e-03    5.5228746094e+04
    4.2399242520e-03    5.5654167969e+04
    4.2498596013e-03    5.6078183594e+04
    4.2598452419e-03    5.6504855469e+04
    4.2698909529e-03    5.6934832031e+04
    4.2798970826e-03    5.7364183594e+04
    4.2898622341e-03    5.7790925781e+04
    4.2999600992e-03    5.8224910156e+04
    4.3098493479e-03    5.8651558594e+04
    4.3199057691e-03    5.9085113281e+04
    4.3298397213e-03    5.9513675781e+04
    4.3399091810e-03    5.9949761719e+04
    4.3498892337e-03    6.0381011719e+04
    4.3599708006e-03    6.0818738281e+04
    4.3699466623e-03    6.1251832031e+04
    4.3798256665e-03    6.1682792969e+04
    4.3899570592e-03    6.2123863281e+04
    4.3999827467e-03    6.2562703125e+04
    4.4098775834e-03    6.2994855469e+04
    4.4198613614e-03    6.3432496094e+04
    4.4298646972e-03    6.3872511719e+04
    4.4399681501e-03    6.4316406250e+04
    4.4499095529e-03    6.4754730469e+04
    4.4599161483e-03    6.5197238281e+04
    4.4699660502e-03    6.5641726562e+04
    4.4798967429e-03    6.6082531250e+04
    4.4898395427e-03    6.6525265625e+04
    4.4998554513e-03    6.6971546875e+04
    4.5098988339e-03    6.7419695312e+04
    4.5198141597e-03    6.7863242188e+04
    4.5299469493e-03    6.8317796875e+04
    4.5399293303e-03    6.8766515625e+04
    4.5499536209e-03    6.9217617188e+04
    4.5598153956e-03    6.9662460938e+04
    4.5699323528e-03    7.0120234375e+04
    4.5798602514e-03    7.0570875000e+04
    4.5898631215e-03    7.1026281250e+04
    4.5998552814e-03    7.1481757812e+04
    4.6099289320e-03    7.1941492188e+04
    4.6199900098e-03    7.2400882812e+04
    4.6299346723e-03    7.2855960938e+04
    4.6398662962e-03    7.3314203125e+04
    4.6498570591e-03    7.3776257812e+04
    4.6598883346e-03    7.4241796875e+04
    4.6699140221e-03    7.4707617188e+04
    4.6798316762e-03    7.5168445312e+04
    4.6898997389e-03    7.5638187500e+04
    4.6998844482e-03    7.6104500000e+04
    4.7098156065e-03    7.6571007812e+04
    4.7198273242e-03    7.7041023438e+04
    4.7298562713e-03    7.7514539062e+04
    4.7399071045e-03    7.7989835938e+04
    4.7498065978e-03    7.8460742188e+04
    4.7599161044e-03    7.8942835938e+04
    4.7698719427e-03    7.9418835938e+04
    4.7798478045e-03    7.9896664062e+04
    4.7898404300e-03    8.0376687500e+04
    4.7998940572e-03    8.0861312500e+04
    4.8099476844e-03    8.1348273438e+04
    4.8198332079e-03    8.1828656250e+04
    4.8299529590e-03    8.2322265625e+04
    4.8398938961e-03    8.2807796875e+04
    4.8498520628e-03    8.3296968750e+04
    4.8598404974e-03    8.3788671875e+04
    4.8698624596e-03    8.4284812500e+04
    4.8798923381e-03    8.4782601562e+04
    4.8899650574e-03    8.5284203125e+04
    4.8998277634e-03    8.5777718750e+04
    4.9099395983e-03    8.6284632812e+04
    4.9198535271e-03    8.6784367188e+04
    4.9297865480e-03    8.7286992188e+04
    4.9399691634e-03    8.7804648438e+04
    4.9499389715e-03    8.8313625000e+04
    4.9599437043e-03    8.8825148438e+04
    4.9699596129e-03    8.9341335938e+04
    4.9799880944e-03    8.9861093750e+04
    4.9898219295e-03    9.0369562500e+04
    4.9998946488e-03    9.0891148438e+04
    5.0099794753e-03    9.1422250000e+04
    5.0198645331e-03    9.1951156250e+04
    5.0299898721e-03    9.2485289062e+04
    5.0398972817e-03    9.2996539062e+04
    5.0498289056e-03    9.3522414062e+04
    5.0597744994e-03    9.4076601562e+04
    5.0699566491e-03    9.4644718750e+04
    5.0799306482e-03    9.5170648438e+04
    5.0899176858e-03    9.5680101562e+04
    5.0999103114e-03    9.6214437500e+04
    5.1099169068e-03    9.6793601562e+04
    5.1199402660e-03    9.7388726562e+04
    5.1299710758e-03    9.7959085938e+04
    5.1397746429e-03    9.8486914062e+04
    5.1498264074e-03    9.9017757812e+04
    5.1598851569e-03    9.9561343750e+04
    5.1699499600e-03    1.0013053906e+05
    5.1797851920e-03    1.0071030469e+05
    5.1898648962e-03    1.0131839844e+05
    5.1999459974e-03    1.0192772656e+05
    5.2097975276e-03    1.0251342969e+05
    5.2198851481e-03    1.0310027344e+05
    5.2299732342e-03    1.0368275000e+05
    5.2398270927e-03    1.0425940625e+05
    5.2499161102e-03    1.0486228906e+05
    5.2597709000e-03    1.0545941406e+05
    5.2698603831e-03    1.0607465625e+05
    5.2799503319e-03    1.0669346094e+05
    5.2898055874e-03    1.0730222656e+05
    5.2998955362e-03    1.0792997656e+05
    5.3099850193e-03    1.0856225000e+05
    5.3198402748e-03    1.0918464844e+05
    5.3299297579e-03    1.0982702344e+05
    5.3397840820e-03    1.1045940625e+05
    5.3498726338e-03    1.1111202344e+05
    5.3599611856e-03    1.1176988281e+05
    5.3698145784e-03    1.1241746875e+05
    5.3799021989e-03    1.1308561719e+05
    5.3899888881e-03    1.1376002344e+05
    5.3998408839e-03    1.1442668750e+05
    5.4099266417e-03    1.1512061719e+05
    5.4197777063e-03    1.1581235156e+05
    5.4298625328e-03    1.1653353125e+05
    5.4399468936e-03    1.1726239844e+05
    5.4497960955e-03    1.1797205469e+05
    5.4598790593e-03    1.1868991406e+05
    5.4699615575e-03    1.1940633594e+05
    5.4798079655e-03    1.2011832031e+05
    5.4898890667e-03    1.2086946094e+05
    5.4999701679e-03    1.2164325781e+05
    5.5098133162e-03    1.2241315625e+05
    5.5198902264e-03    1.2320815625e+05
    5.5299703963e-03    1.2400664844e+05
    5.5398163386e-03    1.2478759375e+05
    5.5498876609e-03    1.2558969531e+05
    5.5599701591e-03    1.2640871094e+05
    5.5698305368e-03    1.2723912500e+05
    5.5799144320e-03    1.2811411719e+05
    5.5897659622e-03    1.2897444531e+05
    5.5998801254e-03    1.2985296094e+05
    5.6099891663e-03    1.3129078125e+05
    5.6198653765e-03    3.1621375000e+05
    5.6299958378e-03    3.1235721875e+05
    5.6398962624e-03    3.0975412500e+05
    5.6497971527e-03    3.0721143750e+05
    5.6599541567e-03    3.0467306250e+05
    5.6698857807e-03    3.0220331250e+05
    5.6798108853e-03    2.9979875000e+05
    5.6899860501e-03    2.9740637500e+05
    5.6999479420e-03    2.9513378125e+05
    5.7099061087e-03    2.9290971875e+05
    5.7198614813e-03    2.9071684375e+05
    5.7298382744e-03    2.8854525000e+05
    5.7398299687e-03    2.8641703125e+05
    5.7498170063e-03    2.8435118750e+05
    5.7598045096e-03    2.8234606250e+05
    5.7698120363e-03    2.8037256250e+05
    5.7798293419e-03    2.7842003125e+05
    5.7898480445e-03    2.7649493750e+05
    5.7998686098e-03    2.7461834375e+05
    5.8099031448e-03    2.7279446875e+05
    5.8199488558e-03    2.7100878125e+05
    5.8297603391e-03    2.6928678125e+05
    5.8398116380e-03    2.6754500000e+05
    5.8498703875e-03    2.6584321875e+05
    5.8599463664e-03    2.6418787500e+05
    5.8697853237e-03    2.6260596875e+05
    5.8798659593e-03    2.6100448438e+05
    5.8899507858e-03    2.5942520312e+05
    5.8998130262e-03    2.5791662500e+05
    5.9099188074e-03    2.5641479688e+05
    5.9197847731e-03    2.5497017188e+05
    5.9298938140e-03    2.5351581250e+05
    5.9397756122e-03    2.5211467188e+05
    5.9499107301e-03    2.5071667188e+05
    5.9597995132e-03    2.4938137500e+05
    5.9699397534e-03    2.4803189062e+05
    5.9798457660e-03    2.4673548438e+05
    5.9897652827e-03    2.4546675000e+05
    5.9999194928e-03    2.4419720312e+05
    6.0098357499e-03    2.4297707812e+05
    6.0197631828e-03    2.4177420312e+05
    6.0299434699e-03    2.4056685938e+05
    6.0398830101e-03    2.3941495312e+05
    6.0498188250e-03    2.3828357812e+05
    6.0597690754e-03    2.3716764062e+05
    6.0699698515e-03    2.3604731250e+05
    6.0799364001e-03    2.3497667188e+05
    6.0898941010e-03    2.3392595312e+05
    6.0998578556e-03    2.3289167188e+05
    6.1098397709e-03    2.3187668750e+05
    6.1198240146e-03    2.3088220312e+05
    6.1298115179e-03    2.2990604688e+05
    6.1397906393e-03    2.2894635938e+05
    6.1497907154e-03    2.2800535938e+05
    6.1597917229e-03    2.2708167188e+05
    6.1697983183e-03    2.2617482812e+05
    6.1798025854e-03    2.2528281250e+05
    6.1898096465e-03    2.2441235938e+05
    6.1998367310e-03    2.2355357812e+05
    6.2098549679e-03    2.2271268750e+05
    6.2198867090e-03    2.2188617188e+05
    6.2299100682e-03    2.2107625000e+05
    6.2399529852e-03    2.2028192188e+05
    6.2499907799e-03    2.1950332812e+05
    6.2597882934e-03    2.1876210938e+05
    6.2698414549e-03    2.1801376562e+05
    6.2798918225e-03    2.1727842188e+05
    6.2899570912e-03    2.1654900000e+05
    6.2997648492e-03    2.1584925000e+05
    6.3098324463e-03    2.1514445312e+05
    6.3199037686e-03    2.1445810938e+05
    6.3299788162e-03    2.1379532812e+05
    6.3398103230e-03    2.1316510938e+05
    6.3498835079e-03    2.1253406250e+05
    6.3599753194e-03    2.1191120312e+05
    6.3698189333e-03    2.1130806250e+05
    6.3799158670e-03    2.1069904688e+05
    6.3897594810e-03    2.1011637500e+05
    6.3998522237e-03    2.0953032812e+05
    6.4099612646e-03    2.0895651562e+05
    6.4198216423e-03    2.0841050000e+05
    6.4299367368e-03    2.0785900000e+05
    6.4397957176e-03    2.0732937500e+05
    6.4499103464e-03    2.0679918750e+05
    6.4597837627e-03    2.0629206250e+05
    6.4699095674e-03    2.0578064062e+05
    6.4797978848e-03    2.0528900000e+05
    6.4899334684e-03    2.0479407812e+05
    6.4998222515e-03    2.0431914062e+05
    6.5099522471e-03    2.0383968750e+05
    6.5198391676e-03    2.0337693750e+05
    6.5299803391e-03    2.0290542188e+05
    6.5398802981e-03    2.0244650000e+05
    6.5497793257e-03    2.0198706250e+05
    6.5599232912e-03    2.0151418750e+05
    6.5698181279e-03    2.0104925000e+05
    6.5799583681e-03    2.0056782812e+05
    6.5898499452e-03    2.0009407812e+05
    6.5999948420e-03    1.9960770312e+05
    6.6099022515e-03    1.9913423438e+05
    6.6198087297e-03    1.9866300000e+05
    6.6299596801e-03    1.9818054688e+05
    6.6398615018e-03    1.9770626562e+05
    6.6497619264e-03    1.9722542188e+05
    6.6599096172e-03    1.9672310938e+05
    6.6698086448e-03    1.9622676562e+05
    6.6799563356e-03    1.9571620312e+05
    6.6898614168e-03    1.9522032812e+05
    6.6997706890e-03    1.9472845312e+05
    6.7099304870e-03    1.9422917188e+05
    6.7198416218e-03    1.9373882812e+05
    6.7299990915e-03    1.9323242188e+05
    6.7399074323e-03    1.9273710938e+05
    6.7498153076e-03    1.9224232812e+05
    6.7599699832e-03    1.9174214062e+05
    6.7698769271e-03    1.9125651562e+05
    6.7797848023e-03    1.9077400000e+05
    6.7899404094e-03    1.9027925000e+05
    6.7998487502e-03    1.8979625000e+05
    6.8097566254e-03    1.8931532812e+05
    6.8199117668e-03    1.8882787500e+05
    6.8298191763e-03    1.8835504688e+05
    6.8399738520e-03    1.8787243750e+05
    6.8498803303e-03    1.8740325000e+05
    6.8597872742e-03    1.8693732812e+05
    6.8699410185e-03    1.8646367188e+05
    6.8798470311e-03    1.8600304688e+05
    6.8897525780e-03    1.8554468750e+05
    6.8999058567e-03    1.8507912500e+05
    6.9098109379e-03    1.8462843750e+05
    6.9199632853e-03    1.8416748438e+05
    6.9298679009e-03    1.8372145312e+05
    6.9397720508e-03    1.8327981250e+05
    6.9499234669e-03    1.8282742188e+05
    6.9598271511e-03    1.8238920312e+05
    6.9699781016e-03    1.8194625000e+05
    6.9798817858e-03    1.8151254688e+05
    6.9897859357e-03    1.8108270312e+05
    6.9999396801e-03    1.8064881250e+05
    7.0098466240e-03    1.8022342188e+05
    7.0197526366e-03    1.7980217188e+05
    7.0299054496e-03    1.7937551562e+05
    7.0398091339e-03    1.7895900000e+05
    7.0499591529e-03    1.7853779688e+05
    7.0598619059e-03    1.7812687500e+05
    7.0697632618e-03    1.7772068750e+05
    7.0799142122e-03    1.7730554688e+05
    7.0898202248e-03    1.7690295312e+05
    7.0999772288e-03    1.7649398438e+05
    7.1098865010e-03    1.7609650000e+05
    7.1197948419e-03    1.7570279688e+05
    7.1299504489e-03    1.7530043750e+05
    7.1398569271e-03    1.7491139062e+05
    7.1497634053e-03    1.7452314062e+05
    7.1599162184e-03    1.7412893750e+05
    7.1698217653e-03    1.7374581250e+05
    7.1799792349e-03    1.7335664062e+05
    7.1898922324e-03    1.7297856250e+05
    7.1998042986e-03    1.7260321875e+05
    7.2099622339e-03    1.7222020312e+05
    7.2198724374e-03    1.7184931250e+05
    7.2297812440e-03    1.7148071875e+05
    7.2399396449e-03    1.7110420312e+05
    7.2498559020e-03    1.7073925000e+05
    7.2597716935e-03    1.7037789062e+05
    7.2699347511e-03    1.7000953125e+05
    7.2798486799e-03    1.6965132812e+05
    7.2897621430e-03    1.6929451562e+05
    7.2999242693e-03    1.6893060938e+05
    7.3098428547e-03    1.6857735938e+05
    7.3197619058e-03    1.6822559375e+05
    7.3299277574e-03    1.6786795312e+05
    7.3398449458e-03    1.6752175000e+05
    7.3497616686e-03    1.6717834375e+05
    7.3599298485e-03    1.6682882812e+05
    7.3698521592e-03    1.6649010938e+05
    7.3797735386e-03    1.6615271875e+05
    7.3899421841e-03    1.6580789062e+05
    7.3998621665e-03    1.6547178125e+05
    7.4097849429e-03    1.6513679688e+05
    7.4199577793e-03    1.6479418750e+05
    7.4298810214e-03    1.6446239062e+05
    7.4398042634e-03    1.6413306250e+05
    7.4499747716e-03    1.6379796875e+05
    7.4599003419e-03    1.6347301562e+05
    7.4698263779e-03    1.6314907812e+05
    7.4799992144e-03    1.6281889062e+05
    7.4899238534e-03    1.6249759375e+05
    7.4998489581e-03    1.6217868750e+05
    7.5097759254e-03    1.6186095312e+05
    7.5199506246e-03    1.6153676562e+05
    7.5298766606e-03    1.6122095312e+05
    7.5398026966e-03    1.6090706250e+05
    7.5499778613e-03    1.6058734375e+05
    7.5599048287e-03    1.6027623438e+05
    7.5698313303e-03    1.5996659375e+05
    7.5797578320e-03    1.5965873438e+05
    7.5899329968e-03    1.5934484375e+05
    7.5998594984e-03    1.5903929688e+05
    7.6097855344e-03    1.5873529688e+05
    7.6199602336e-03    1.5842464062e+05
    7.6298862696e-03    1.5812278125e+05
    7.6398123056e-03    1.5782210938e+05
    7.6499865390e-03    1.5751514062e+05
    7.6599121094e-03    1.5721684375e+05
    7.6698381454e-03    1.5691937500e+05
    7.6797632501e-03    1.5662375000e+05
    7.6899370179e-03    1.5632214062e+05
    7.6998621225e-03    1.5602803125e+05
    7.7097872272e-03    1.5573542188e+05
    7.7199605294e-03    1.5543551562e+05
    7.7298851684e-03    1.5514412500e+05
    7.7398098074e-03    1.5485335938e+05
    7.7499826439e-03    1.5455675000e+05
    7.7599068172e-03    1.5426851562e+05
    7.7698314562e-03    1.5398107812e+05
    7.7797560953e-03    1.5369495312e+05
    7.7899289317e-03    1.5340175000e+05
    7.7998554334e-03    1.5311700000e+05
    7.8097814694e-03    1.5283248438e+05
    7.8199561685e-03    1.5254192188e+05
    7.8298849985e-03    1.5225948438e+05
    7.8398156911e-03    1.5197806250e+05
    7.8499959782e-03    1.5169121875e+05
    7.8599294648e-03    1.5140975000e+05
    7.8698620200e-03    1.5112568750e+05
    7.8798001632e-03    1.5084435938e+05
    7.8899888322e-03    1.5055856250e+05
    7.8999325633e-03    1.5028439062e+05
    7.9098790884e-03    1.5001243750e+05
    7.9198293388e-03    1.4973490625e+05
    7.9297786579e-03    1.4945164062e+05
    7.9399775714e-03    1.4916212500e+05
    7.9499259591e-03    1.4888937500e+05
    7.9598743469e-03    1.4862681250e+05
    7.9698227346e-03    1.4836309375e+05
    7.9797720537e-03    1.4808304688e+05
    7.9899691045e-03    1.4778029688e+05
    7.9999184236e-03    1.4748806250e+05
    8.0098668113e-03    1.4721770312e+05
    8.0198198557e-03    1.4697268750e+05
    8.0297738314e-03    1.4674190625e+05
    8.0399783328e-03    1.4649185938e+05
    8.0499332398e-03    1.4621128125e+05
    8.0598918721e-03    1.4590289062e+05
    8.0698579550e-03    1.4559489062e+05
    8.0798249692e-03    1.4530631250e+05
    8.0897947773e-03    1.4504146875e+05
    8.0997664481e-03    1.4479721875e+05
    8.1099895760e-03    1.4455915625e+05
    8.1199659035e-03    1.4432915625e+05
    8.1299431622e-03    1.4408956250e+05
    8.1399269402e-03    1.4383060938e+05
    8.1499181688e-03    1.4355585938e+05
    8.1599149853e-03    1.4327095312e+05
    8.1699108705e-03    1.4298326562e+05
    8.1799160689e-03    1.4270306250e+05
    8.1899370998e-03    1.4243131250e+05
    8.1999655813e-03    1.4217051562e+05
    8.2099949941e-03    1.4191848438e+05
    8.2197738811e-03    1.4167442188e+05
    8.2298023626e-03    1.4142185938e+05
    8.2398299128e-03    1.4116421875e+05
    8.2498593256e-03    1.4090507812e+05
    8.2598887384e-03    1.4064585938e+05
    8.2699190825e-03    1.4038825000e+05
    8.2799512893e-03    1.4013071875e+05
    8.2899834961e-03    1.3987343750e+05
    8.2997642457e-03    1.3962323438e+05
    8.3097955212e-03    1.3936718750e+05
    8.3198267967e-03    1.3911262500e+05
    8.3298580721e-03    1.3885851562e+05
    8.3398902789e-03    1.3860573438e+05
    8.3499224856e-03    1.3835353125e+05
    8.3599546924e-03    1.3810223438e+05
    8.3699878305e-03    1.3785117188e+05
    8.3797695115e-03    1.3760693750e+05
    8.3898026496e-03    1.3735764062e+05
    8.3998357877e-03    1.3711025000e+05
    8.4098679945e-03    1.3686518750e+05
    8.4199029952e-03    1.3662140625e+05
    8.4299435839e-03    1.3637778125e+05
    8.4399851039e-03    1.3613160938e+05
    8.4497733042e-03    1.3588581250e+05
    8.4598120302e-03    1.3562604688e+05
    8.4698619321e-03    1.3536154688e+05
    8.4799211472e-03    1.3509709375e+05
    8.4899803624e-03    1.3483884375e+05
    8.4997871891e-03    1.3459723438e+05
    8.5098510608e-03    1.3436126562e+05
    8.5199279711e-03    1.3413296875e+05
    8.5297590122e-03    1.3390979688e+05
    8.5398433730e-03    1.3367362500e+05
    8.5499370471e-03    1.3342646875e+05
    8.5597792640e-03    1.3317828125e+05
    8.5698831826e-03    1.3292071875e+05
    8.5799945518e-03    1.3266550000e+05
    8.5898553953e-03    1.3242143750e+05
    8.5999760777e-03    1.3217853125e+05
    8.6098518223e-03    1.3195000000e+05
    8.6199799553e-03    1.3171985938e+05
    8.6298584938e-03    1.3149009375e+05
    8.6397472769e-03    1.3124600000e+05
    8.6498931050e-03    1.3098615625e+05
    8.6597930640e-03    1.3073632031e+05
    8.6699491367e-03    1.3049378125e+05
    8.6798500270e-03    1.3026983594e+05
    8.6897602305e-03    1.3004700781e+05
    8.6999367923e-03    1.2980785156e+05
    8.7098600343e-03    1.2956158594e+05
    8.7197860703e-03    1.2931283594e+05
    8.7299719453e-03    1.2906572656e+05
    8.7399035692e-03    1.2883590625e+05
    8.7498482317e-03    1.2860956250e+05
    8.7597994134e-03    1.2837662500e+05
    8.7697487324e-03    1.2813164844e+05
    8.7799616158e-03    1.2787625000e+05
    8.7899239734e-03    1.2763866406e+05
    8.7998863310e-03    1.2741100781e+05
    8.8098598644e-03    1.2718321875e+05
    8.8198371232e-03    1.2694283594e+05
    8.8298153132e-03    1.2669616406e+05
    8.8398046792e-03    1.2645400781e+05
    8.8497968391e-03    1.2622355469e+05
    8.8597889990e-03    1.2599471094e+05
    8.8697932661e-03    1.2575657031e+05
    8.8797947392e-03    1.2551114844e+05
    8.8897999376e-03    1.2527100781e+05
    8.8998181745e-03    1.2503975000e+05
    8.9098392054e-03    1.2480783594e+05
    8.9198620990e-03    1.2456685156e+05
    8.9298952371e-03    1.2432163281e+05
    8.9399209246e-03    1.2408317969e+05
    8.9499522001e-03    1.2385116406e+05
    8.9599993080e-03    1.2361539844e+05
    8.9697875082e-03    1.2337915625e+05
    8.9798364788e-03    1.2313789844e+05
    8.9898956940e-03    1.2290241406e+05
    8.9999465272e-03    1.2266639844e+05
    9.0097421780e-03    1.2243067969e+05
    9.0198135003e-03    1.2218872656e+05
    9.0298848227e-03    1.2195160156e+05
    9.0399617329e-03    1.2171525000e+05
    9.0497871861e-03    1.2148119531e+05
    9.0598640963e-03    1.2124034375e+05
    9.0699465945e-03    1.2100108594e+05
    9.0797850862e-03    1.2076563281e+05
    9.0898796916e-03    1.2051642969e+05
    9.0999770910e-03    1.2026600781e+05
    9.1098239645e-03    1.2002689844e+05
    9.1199269518e-03    1.1978889844e+05
    9.1297775507e-03    1.1956089844e+05
    9.1399010271e-03    1.1932957031e+05
    9.1497628018e-03    1.1910400781e+05
    9.1598862782e-03    1.1886556250e+05
    9.1697564349e-03    1.1862416406e+05
    9.1798817739e-03    1.1837284375e+05
    9.1897575185e-03    1.1813002344e+05
    9.1999024153e-03    1.1788425781e+05
    9.2097846791e-03    1.1764838281e+05
    9.2199295759e-03    1.1740918750e+05
    9.2298230156e-03    1.1717634375e+05
    9.2399716377e-03    1.1693462500e+05
    9.2498669401e-03    1.1669552344e+05
    9.2597696930e-03    1.1645497656e+05
    9.2699360102e-03    1.1620622656e+05
    9.2798471451e-03    1.1595965625e+05
    9.2897629365e-03    1.1571143750e+05
    9.2999348417e-03    1.1545344531e+05
    9.3098534271e-03    1.1520103125e+05
    9.3197776005e-03    1.1495252344e+05
    9.3299625441e-03    1.1470530469e+05
    9.3398941681e-03    1.1447432031e+05
    9.3498323113e-03    1.1424828906e+05
    9.3597704545e-03    1.1402124219e+05
    9.3699721619e-03    1.1377781250e+05
    9.3799158931e-03    1.1352738281e+05
    9.3898624182e-03    1.1326666406e+05
    9.3998154625e-03    1.1300450000e+05
    9.4097722322e-03    1.1274656250e+05
    9.4199934974e-03    1.1249160156e+05
    9.4299595803e-03    1.1225156250e+05
    9.4399275258e-03    1.1201480469e+05
    9.4498936087e-03    1.1177757031e+05
    9.4598634169e-03    1.1153361719e+05
    9.4698397443e-03    1.1128260156e+05
    9.4798179343e-03    1.1102927344e+05
    9.4898026437e-03    1.1077593750e+05
    9.4997938722e-03    1.1052508594e+05
    9.5097860321e-03    1.1027958594e+05
    9.5197828487e-03    1.1003791406e+05
    9.5297805965e-03    1.0979458594e+05
    9.5397764817e-03    1.0954541406e+05
    9.5497770235e-03    1.0928963281e+05
    9.5597831532e-03    1.0903019531e+05
    9.5697911456e-03    1.0877191406e+05
    9.5798065886e-03    1.0851761719e+05
    9.5898276195e-03    1.0826736719e+05
    9.5998505130e-03    1.0801897656e+05
    9.6098743379e-03    1.0776903906e+05
    9.6198990941e-03    1.0751692969e+05
    9.6299275756e-03    1.0726453906e+05
    9.6399597824e-03    1.0701367969e+05
    9.6499929205e-03    1.0676402344e+05
    9.6597643569e-03    1.0651981250e+05
    9.6698030829e-03    1.0626478906e+05
    9.6798464656e-03    1.0600483594e+05
    9.6898917109e-03    1.0574281250e+05
    9.6999425441e-03    1.0548338281e+05
    9.7099971026e-03    1.0522991406e+05
    9.7197918221e-03    1.0498821094e+05
    9.7298501059e-03    1.0474066406e+05
    9.7399102524e-03    1.0448814844e+05
    9.7499741241e-03    1.0422780469e+05
    9.7597762942e-03    1.0396952344e+05
    9.7698457539e-03    1.0370639844e+05
    9.7799189389e-03    1.0345021094e+05
    9.7899977118e-03    1.0319957031e+05
    9.7998147830e-03    1.0295794531e+05
    9.8098991439e-03    1.0270675781e+05
    9.8199825734e-03    1.0244806250e+05
    9.8298061639e-03    1.0218957031e+05
    9.8398998380e-03    1.0191889844e+05
    9.8499925807e-03    1.0165103125e+05
    9.8598264158e-03    1.0139480469e+05
    9.8699303344e-03    1.0113861719e+05
    9.8797716200e-03    1.0089678125e+05
    9.8898801953e-03    1.0065325781e+05
    9.8999878392e-03    1.0040784375e+05
    9.9098347127e-03    1.0016250781e+05
    9.9199516699e-03    9.9903554688e+04
    9.9298050627e-03    9.9646687500e+04
    9.9399276078e-03    9.9380351562e+04
    9.9497903138e-03    9.9119625000e+04
    9.9599212408e-03    9.8852726562e+04
    9.9697867408e-03    9.8594835938e+04
    9.9799176678e-03    9.8330406250e+04
    9.9897859618e-03    9.8073101562e+04
    9.9999262020e-03    9.7810531250e+04
    1.0009800084e-02    9.7557101562e+04
    1.0019944049e-02    9.7297820312e+04
    1.0029826313e-02    9.7048664062e+04
    1.0039979592e-02    9.6794914062e+04
    1.0049865581e-02    9.6545757812e+04
    1.0059754364e-02    9.6295835938e+04
    1.0069913231e-02    9.6038523438e+04
    1.0079809465e-02    9.5783289062e+04
    1.0089974850e-02    9.5520937500e+04
    1.0099874809e-02    9.5266789062e+04
    1.0109779425e-02    9.5012125000e+04
    1.0119954124e-02    9.4753289062e+04
    1.0129859671e-02    9.4501750000e+04
    1.0139767081e-02    9.4249695312e+04
    1.0149949230e-02    9.3990789062e+04
    1.0159867816e-02    9.3736625000e+04
    1.0169789195e-02    9.3482867188e+04
    1.0179979727e-02    9.3221554688e+04
    1.0189902969e-02    9.2967804688e+04
    1.0199831799e-02    9.2714656250e+04
    1.0209758766e-02    9.2461320312e+04
    1.0219954886e-02    9.2200648438e+04
    1.0229891166e-02    9.1945195312e+04
    1.0239832103e-02    9.1688726562e+04
    1.0249773972e-02    9.1431351562e+04
    1.0259984992e-02    9.1168601562e+04
    1.0269929655e-02    9.0916000000e+04
    1.0279879905e-02    9.0667210938e+04
    1.0289832950e-02    9.0420960938e+04
    1.0299785063e-02    9.0175664062e+04
    1.0309742764e-02    8.9928929688e+04
    1.0319976136e-02    8.9671351562e+04
    1.0329939425e-02    8.9415914062e+04
    1.0339902714e-02    8.9156335938e+04
    1.0349867865e-02    8.8893562500e+04
    1.0359838605e-02    8.8628867188e+04
    1.0369812138e-02    8.8363968750e+04
    1.0379786603e-02    8.8099664062e+04
    1.0389763862e-02    8.7836210938e+04
    1.0399748571e-02    8.7573460938e+04
    1.0409735143e-02    8.7311734375e+04
    1.0419989005e-02    8.7043531250e+04
    1.0429977439e-02    8.6782984375e+04
    1.0439971462e-02    8.6523218750e+04
    1.0449968278e-02    8.6263851562e+04
    1.0459965095e-02    8.6004578125e+04
    1.0469966568e-02    8.5744250000e+04
    1.0479972698e-02    8.5482398438e+04
    1.0489981622e-02    8.5218593750e+04
    1.0499987751e-02    8.4953757812e+04
    1.0509996675e-02    8.4689257812e+04
    1.0519742966e-02    8.4433750000e+04
    1.0529763997e-02    8.4174273438e+04
    1.0539785028e-02    8.3918265625e+04
    1.0549807921e-02    8.3664851562e+04
    1.0559836403e-02    8.3412507812e+04
    1.0569869541e-02    8.3159859375e+04
    1.0579899885e-02    8.2906289062e+04
    1.0589931160e-02    8.2651671875e+04
    1.0599970818e-02    8.2396281250e+04
    1.0609745048e-02    8.2147859375e+04
    1.0619790293e-02    8.1894054688e+04
    1.0629837401e-02    8.1642867188e+04
    1.0639890097e-02    8.1394070312e+04
    1.0649944656e-02    8.1146445312e+04
    1.0659999214e-02    8.0899195312e+04
    1.0669785552e-02    8.0658406250e+04
    1.0679850355e-02    8.0409468750e+04
    1.0689921677e-02    8.0155773438e+04
    1.0699992068e-02    7.9890312500e+04
    1.0709786788e-02    7.9609875000e+04
    1.0719860904e-02    7.9285875000e+04
    1.0729938745e-02    7.8918085938e+04
    1.0739741847e-02    7.8518867188e+04
    1.0749824345e-02    7.8072929688e+04
    1.0759917088e-02    7.7600375000e+04
    1.0769747198e-02    7.7123585938e+04
    1.0779855773e-02    7.6622984375e+04
    1.0789965279e-02    7.6115617188e+04
    1.0799800977e-02    7.5618906250e+04
    1.0809907690e-02    7.5107078125e+04
    1.0819741525e-02    7.4608953125e+04
    1.0829846375e-02    7.4097812500e+04
    1.0839950293e-02    7.3588078125e+04
    1.0849783197e-02    7.3093859375e+04
    1.0859890841e-02    7.2588101562e+04
    1.0869998485e-02    7.2084820312e+04
    1.0879833251e-02    7.1597695312e+04
    1.0889939032e-02    7.1099773438e+04
    1.0899771936e-02    7.0617914062e+04
    1.0909877717e-02    7.0125437500e+04
    1.0919981636e-02    6.9635984375e+04
    1.0929812677e-02    6.9162875000e+04
    1.0939916596e-02    6.8680242188e+04
    1.0949745774e-02    6.8214523438e+04
    1.0959847830e-02    6.7738937500e+04
    1.0969948024e-02    6.7265773438e+04
    1.0979777202e-02    6.6808359375e+04
    1.0989882983e-02    6.6340171875e+04
    1.0999990627e-02    6.5874171875e+04
    1.1009826325e-02    6.5424625000e+04
    1.1019933969e-02    6.4966027344e+04
    1.1029766873e-02    6.4524011719e+04
    1.1039871722e-02    6.4073519531e+04
    1.1049975641e-02    6.3626062500e+04
    1.1059805751e-02    6.3193339844e+04
    1.1069909669e-02    6.2750531250e+04
    1.1079738848e-02    6.2321906250e+04
    1.1089842767e-02    6.1883671875e+04
    1.1099948548e-02    6.1448359375e+04
    1.1109780520e-02    6.1027980469e+04
    1.1119884439e-02    6.0599597656e+04
    1.1129987426e-02    6.0174925781e+04
    1.1139816605e-02    5.9764957031e+04
    1.1149918661e-02    5.9346191406e+04
    1.1159746908e-02    5.8940878906e+04
    1.1169848032e-02    5.8526558594e+04
    1.1179949157e-02    5.8114644531e+04
    1.1189778335e-02    5.7716511719e+04
    1.1199879460e-02    5.7310402344e+04
    1.1209979653e-02    5.6907261719e+04
    1.1219806038e-02    5.6517605469e+04
    1.1229905300e-02    5.6119746094e+04
    1.1239730753e-02    5.5735156250e+04
    1.1249829084e-02    5.5342707031e+04
    1.1259927414e-02    5.4952863281e+04
    1.1269752868e-02    5.4575542969e+04
    1.1279850267e-02    5.4190636719e+04
    1.1289946735e-02    5.3808503906e+04
    1.1299769394e-02    5.3438644531e+04
    1.1309864931e-02    5.3061531250e+04
    1.1319959536e-02    5.2686761719e+04
    1.1329782195e-02    5.2324300781e+04
    1.1339876801e-02    5.1954332031e+04
    1.1349970475e-02    5.1586562500e+04
    1.1359790340e-02    5.1231386719e+04
    1.1369883083e-02    5.0868660156e+04
    1.1379974894e-02    5.0508453125e+04
    1.1389792897e-02    5.0160144531e+04
    1.1399884708e-02    4.9804296875e+04
    1.1409976520e-02    4.9450457031e+04
    1.1419795454e-02    4.9108156250e+04
    1.1429886334e-02    4.8758457031e+04
    1.1439975351e-02    4.8411082031e+04
    1.1449791491e-02    4.8075464844e+04
    1.1459878646e-02    4.7732980469e+04
    1.1469967663e-02    4.7392781250e+04
    1.1479787529e-02    4.7063824219e+04
    1.1489880271e-02    4.6727847656e+04
    1.1499972083e-02    4.6393980469e+04
    1.1509790085e-02    4.6070980469e+04
    1.1519879103e-02    4.5740953125e+04
    1.1529967189e-02    4.5413167969e+04
    1.1539782397e-02    4.5096300781e+04
    1.1549869552e-02    4.4772437500e+04
    1.1559956707e-02    4.4450546875e+04
    1.1569773778e-02    4.4139488281e+04
    1.1579866521e-02    4.3821832031e+04
    1.1589962058e-02    4.3506015625e+04
    1.1599783786e-02    4.3200394531e+04
    1.1609876528e-02    4.2888007812e+04
    1.1619968340e-02    4.2577417969e+04
    1.1629785411e-02    4.2277136719e+04
    1.1639875360e-02    4.1970644531e+04
    1.1649964377e-02    4.1666167969e+04
    1.1659779586e-02    4.1371839844e+04
    1.1669867672e-02    4.1071160156e+04
    1.1679954827e-02    4.0772339844e+04
    1.1689770035e-02    4.0483375000e+04
    1.1699856259e-02    4.0188167969e+04
    1.1709942482e-02    3.9894742188e+04
    1.1719755828e-02    3.9610910156e+04
    1.1729842052e-02    3.9320882812e+04
    1.1739927344e-02    3.9032535156e+04
    1.1749740690e-02    3.8753539062e+04
    1.1759825051e-02    3.8468367188e+04
    1.1769909412e-02    3.8184835938e+04
    1.1779992841e-02    3.7903050781e+04
    1.1789803393e-02    3.7630648438e+04
    1.1799885891e-02    3.7352570312e+04
    1.1809967458e-02    3.7076292969e+04
    1.1819775216e-02    3.6808953125e+04
    1.1829855852e-02    3.6535667969e+04
    1.1839937419e-02    3.6264113281e+04
    1.1849747039e-02    3.6001511719e+04
    1.1859827675e-02    3.5732988281e+04
    1.1869907379e-02    3.5466207031e+04
    1.1879986152e-02    3.5201238281e+04
    1.1889795773e-02    3.4944828125e+04
    1.1899879202e-02    3.4682898438e+04
    1.1909962632e-02    3.4422824219e+04
    1.1919773184e-02    3.4171359375e+04
    1.1929856613e-02    3.3914578125e+04
    1.1939944699e-02    3.3659621094e+04
    1.1949769221e-02    3.3413011719e+04
    1.1959868483e-02    3.3161406250e+04
    1.1969969608e-02    3.2911953125e+04
    1.1979802512e-02    3.2671404297e+04
    1.1989923194e-02    3.2426416016e+04
    1.1999784969e-02    3.2190851562e+04
    1.2009928934e-02    3.1952791016e+04
    1.2019804679e-02    3.1727291016e+04
    1.2029958889e-02    3.1507845703e+04
    1.2039841153e-02    3.1332044922e+04
    1.2049743906e-02    3.1243679688e+04
    1.2059965171e-02    3.1319990234e+04
    1.2069958262e-02    3.1609392578e+04
    1.2079723179e-02    3.2041037109e+04
    1.2089814991e-02    3.2473533203e+04
    1.2099945918e-02    3.2881925781e+04
    1.2109830044e-02    3.3430480469e+04
    1.2119741179e-02    3.4236214844e+04
    1.2129964307e-02    3.5349781250e+04
    1.2139924802e-02    3.6618492188e+04
    1.2149905786e-02    3.7820968750e+04
    1.2159908190e-02    3.8807281250e+04
    1.2169932015e-02    3.9598835938e+04
    1.2179976329e-02    4.0248921875e+04
    1.2189756148e-02    4.0783074219e+04
    1.2199842371e-02    4.1259085938e+04
    1.2209951878e-02    4.1679773438e+04
    1.2219798751e-02    4.2048449219e+04
    1.2229966931e-02    4.2395382812e+04
    1.2239878997e-02    4.2706746094e+04
    1.2249826454e-02    4.2995949219e+04
    1.2259805575e-02    4.3265281250e+04
    1.2269810773e-02    4.3517402344e+04
    1.2279833667e-02    4.3754941406e+04
    1.2289864011e-02    4.3980453125e+04
    1.2299900874e-02    4.4196261719e+04
    1.2309941463e-02    4.4404035156e+04
    1.2319991365e-02    4.4604527344e+04
    1.2329759076e-02    4.4791949219e+04
    1.2339842506e-02    4.4978050781e+04
    1.2349951081e-02    4.5158605469e+04
    1.2359793298e-02    4.5329593750e+04
    1.2369960546e-02    4.5501175781e+04
    1.2379853055e-02    4.5662746094e+04
    1.2389762327e-02    4.5818800781e+04
    1.2399979867e-02    4.5972777344e+04
    1.2409902178e-02    4.6114707031e+04
    1.2419826351e-02    4.6249199219e+04
    1.2429761700e-02    4.6377496094e+04
    1.2439716607e-02    4.6501488281e+04
    1.2449698523e-02    4.6622953125e+04
    1.2459717691e-02    4.6743253906e+04
    1.2469797395e-02    4.6863152344e+04
    1.2479971163e-02    4.6982925781e+04
    1.2489966117e-02    4.7098667969e+04
    1.2499804609e-02    4.7209699219e+04
    1.2509819120e-02    4.7318203125e+04
    1.2519688345e-02    4.7420019531e+04
    1.2529736385e-02    4.7518406250e+04
    1.2539963238e-02    4.7614644531e+04
    1.2549668550e-02    4.7704214844e+04
    1.2559879571e-02    4.7798425781e+04
    1.2569890358e-02    4.7892031250e+04
    1.2579682283e-02    4.7984886719e+04
    1.2589978054e-02    4.8082496094e+04
    1.2599665672e-02    4.8172691406e+04
    1.2609853409e-02    4.8264238281e+04
    1.2619785033e-02    4.8349910156e+04
    1.2629835866e-02    4.8433363281e+04
    1.2639610097e-02    4.8512574219e+04
    1.2649890967e-02    4.8595785156e+04
    1.2659884989e-02    4.8678527344e+04
    1.2669987045e-02    4.8764183594e+04
    1.2679782696e-02    4.8847312500e+04
    1.2689676136e-02    4.8929785156e+04
    1.2699664570e-02    4.9011449219e+04
    1.2709751725e-02    4.9092796875e+04
    1.2719932944e-02    4.9173597656e+04
    1.2729777955e-02    4.9250300781e+04
    1.2739709578e-02    4.9327082031e+04
    1.2749722227e-02    4.9405234375e+04
    1.2759814970e-02    4.9485183594e+04
    1.2769990601e-02    4.9566425781e+04
    1.2779797427e-02    4.9644792969e+04
    1.2789673172e-02    4.9723234375e+04
    1.2799611315e-02    4.9801125000e+04
    1.2809602544e-02    4.9878109375e+04
    1.2819635682e-02    4.9954699219e+04
    1.2829694897e-02    5.0031734375e+04
    1.2839792296e-02    5.0110062500e+04
    1.2849926017e-02    5.0189699219e+04
    1.2859636918e-02    5.0266613281e+04
    1.2869853526e-02    5.0347566406e+04
    1.2879630551e-02    5.0424359375e+04
    1.2889914215e-02    5.0503781250e+04
    1.2899780646e-02    5.0578628906e+04
    1.2909671292e-02    5.0653128906e+04
    1.2919603847e-02    5.0728621094e+04
    1.2929586694e-02    5.0806027344e+04
    1.2939592823e-02    5.0885386719e+04
    1.2949636206e-02    5.0965968750e+04
    1.2959709391e-02    5.1046667969e+04
    1.2969823554e-02    5.1127199219e+04
    1.2979524210e-02    5.1203019531e+04
    1.2989681214e-02    5.1281207031e+04
    1.2999932282e-02    5.1358464844e+04
    1.3009693474e-02    5.1431625000e+04
    1.3019997627e-02    5.1509406250e+04
    1.3029832393e-02    5.1585363281e+04
    1.3039712794e-02    5.1663707031e+04
    1.3049597852e-02    5.1744855469e+04
    1.3059571385e-02    5.1828511719e+04
    1.3069991022e-02    5.1917238281e+04
    1.3079481199e-02    5.1997558594e+04
    1.3089562766e-02    5.2080886719e+04
    1.3099583797e-02    5.2161484375e+04
    1.3109660707e-02    5.2239156250e+04
    1.3119787909e-02    5.2314890625e+04
    1.3129914179e-02    5.2390363281e+04
    1.3139608316e-02    5.2463203125e+04
    1.3149846345e-02    5.2541699219e+04
    1.3159603812e-02    5.2617863281e+04
    1.3169817626e-02    5.2698730469e+04
    1.3179586269e-02    5.2776800781e+04
    1.3189943507e-02    5.2861894531e+04
    1.3199837878e-02    5.2944519531e+04
    1.3209674507e-02    5.3026019531e+04
    1.3219576329e-02    5.3107800781e+04
    1.3229489326e-02    5.3190187500e+04
    1.3239991851e-02    5.3279550781e+04
    1.3249979354e-02    5.3365707031e+04
    1.3259952888e-02    5.3450644531e+04
    1.3269900344e-02    5.3535125000e+04
    1.3279914856e-02    5.3621093750e+04
    1.3289962895e-02    5.3707808594e+04
    1.3299514540e-02    5.3790128906e+04
    1.3309575617e-02    5.3875593750e+04
    1.3319735415e-02    5.3961449219e+04
    1.3329891488e-02    5.4047562500e+04
    1.3339486904e-02    5.4128644531e+04
    1.3349693269e-02    5.4213984375e+04
    1.3359877281e-02    5.4299550781e+04
    1.3369580731e-02    5.4381550781e+04
    1.3379814103e-02    5.4468386719e+04
    1.3389554806e-02    5.4551937500e+04
    1.3399813324e-02    5.4640871094e+04
    1.3409598731e-02    5.4726359375e+04
    1.3419887982e-02    5.4816707031e+04
    1.3429656625e-02    5.4903171875e+04
    1.3439437374e-02    5.4989980469e+04
    1.3449748047e-02    5.5081105469e+04
    1.3459975831e-02    5.5171957031e+04
    1.3469526544e-02    5.5257535156e+04
    1.3479980640e-02    5.5350605469e+04
    1.3489678502e-02    5.5437472656e+04
    1.3499586843e-02    5.5526855469e+04
    1.3509676792e-02    5.5618097656e+04
    1.3519911095e-02    5.5710718750e+04
    1.3529813848e-02    5.5800578125e+04
    1.3539822772e-02    5.5891839844e+04
    1.3549901545e-02    5.5984535156e+04
    1.3559618965e-02    5.6074902344e+04
    1.3569748960e-02    5.6169363281e+04
    1.3579839841e-02    5.6262878906e+04
    1.3589856215e-02    5.6355605469e+04
    1.3599756174e-02    5.6448019531e+04
    1.3609816320e-02    5.6543238281e+04
    1.3619938865e-02    5.6640246094e+04
    1.3629741967e-02    5.6734097656e+04
    1.3639952056e-02    5.6831230469e+04
    1.3649846427e-02    5.6925628906e+04
    1.3659944758e-02    5.7023300781e+04
    1.3669878244e-02    5.7121421875e+04
    1.3679994270e-02    5.7223105469e+04
    1.3689951040e-02    5.7323832031e+04
    1.3699893840e-02    5.7421792969e+04
    1.3709986582e-02    5.7518847656e+04
    1.3719867915e-02    5.7611312500e+04
    1.3729938306e-02    5.7705035156e+04
    1.3739865273e-02    5.7799281250e+04
    1.3749936596e-02    5.7897925781e+04
    1.3759824447e-02    5.7997207031e+04
    1.3769977726e-02    5.8099800781e+04
    1.3779841363e-02    5.8198128906e+04
    1.3789966702e-02    5.8297121094e+04
    1.3799937442e-02    5.8393613281e+04
    1.3809915632e-02    5.8490222656e+04
    1.3819877058e-02    5.8587453125e+04
    1.3829978183e-02    5.8688050781e+04
    1.3839983381e-02    5.8790433594e+04
    1.3849867508e-02    5.8894488281e+04
    1.3859834522e-02    5.9001859375e+04
    1.3869880699e-02    5.9111562500e+04
    1.3879977167e-02    5.9222449219e+04
    1.3889911585e-02    5.9331437500e+04
    1.3899890706e-02    5.9440378906e+04
    1.3909923844e-02    5.9549269531e+04
    1.3919978403e-02    5.9658027344e+04
    1.3929867186e-02    5.9765199219e+04
    1.3939998113e-02    5.9875437500e+04
    1.3949956745e-02    5.9984738281e+04
    1.3959917240e-02    6.0094972656e+04
    1.3969941996e-02    6.0206394531e+04
    1.3979956508e-02    6.0318238281e+04
    1.3989799656e-02    6.0428386719e+04
    1.3999871910e-02    6.0541058594e+04
    1.4009984210e-02    6.0654378906e+04
    1.4019881375e-02    6.0765953125e+04
    1.4029793441e-02    6.0878261719e+04
    1.4039976522e-02    6.0994265625e+04
    1.4049925841e-02    6.1108156250e+04
    1.4059922658e-02    6.1223375000e+04
    1.4069927856e-02    6.1339519531e+04
    1.4079964720e-02    6.1456730469e+04
    1.4089778066e-02    6.1571753906e+04
    1.4099863358e-02    6.1690332031e+04
    1.4109952375e-02    6.1809332031e+04
    1.4119832776e-02    6.1926144531e+04
    1.4129973948e-02    6.2046175781e+04
    1.4139889739e-02    6.2163371094e+04
    1.4149824157e-02    6.2280824219e+04
    1.4159786515e-02    6.2399511719e+04
    1.4169996604e-02    6.2523652344e+04
    1.4179978520e-02    6.2649230469e+04
    1.4189989306e-02    6.2781214844e+04
    1.4199770987e-02    6.2916750000e+04
    1.4209797606e-02    6.3060503906e+04
    1.4219850302e-02    6.3204578125e+04
    1.4229916967e-02    6.3342863281e+04
    1.4239985496e-02    6.3471316406e+04
    1.4249837026e-02    6.3588375000e+04
    1.4259945601e-02    6.3705347656e+04
    1.4269812964e-02    6.3822808594e+04
    1.4279939234e-02    6.3950457031e+04
    1.4289847575e-02    6.4081671875e+04
    1.4299991541e-02    6.4218332031e+04
    1.4309908263e-02    6.4350425781e+04
    1.4319852926e-02    6.4480785156e+04
    1.4329791069e-02    6.4610871094e+04
    1.4339977875e-02    6.4745437500e+04
    1.4349953271e-02    6.4877855469e+04
    1.4359927736e-02    6.5009496094e+04
    1.4369898476e-02    6.5139953125e+04
    1.4379899018e-02    6.5270671875e+04
    1.4389910735e-02    6.5402808594e+04
    1.4399909414e-02    6.5536500000e+04
    1.4409933239e-02    6.5671804688e+04
    1.4419981278e-02    6.5808125000e+04
    1.4429768547e-02    6.5941132812e+04
    1.4439813793e-02    6.6077367188e+04
    1.4449887909e-02    6.6213781250e+04
    1.4459950849e-02    6.6350906250e+04
    1.4469771646e-02    6.6486539062e+04
    1.4479868114e-02    6.6628117188e+04
    1.4489965513e-02    6.6771953125e+04
    1.4499811456e-02    6.6913914062e+04
    1.4509928413e-02    6.7060898438e+04
    1.4519806951e-02    6.7205781250e+04
    1.4529927634e-02    6.7356265625e+04
    1.4539819211e-02    6.7506007812e+04
    1.4549974352e-02    6.7662968750e+04
    1.4559878968e-02    6.7818859375e+04
    1.4569791034e-02    6.7976804688e+04
    1.4579965733e-02    6.8140734375e+04
    1.4589896426e-02    6.8302937500e+04
    1.4599832706e-02    6.8468156250e+04
    1.4609780163e-02    6.8636984375e+04
    1.4619984664e-02    6.8813195312e+04
    1.4629945159e-02    6.8987156250e+04
    1.4639912173e-02    6.9163031250e+04
    1.4649891295e-02    6.9341554688e+04
    1.4659875073e-02    6.9523359375e+04
    1.4669861645e-02    6.9708640625e+04
    1.4679862186e-02    6.9897125000e+04
    1.4689867385e-02    7.0087937500e+04
    1.4699874446e-02    7.0280945312e+04
    1.4709893614e-02    7.0476914062e+04
    1.4719919302e-02    7.0676335938e+04
    1.4729948714e-02    7.0879164062e+04
    1.4739984646e-02    7.1084914062e+04
    1.4749777503e-02    7.1287851562e+04
    1.4759827405e-02    7.1498554688e+04
    1.4769882895e-02    7.1712437500e+04
    1.4779944904e-02    7.1930070312e+04
    1.4789760113e-02    7.2145695312e+04
    1.4799831435e-02    7.2369867188e+04
    1.4809911139e-02    7.2597062500e+04
    1.4819996431e-02    7.2827585938e+04
    1.4829834923e-02    7.3055890625e+04
    1.4839927666e-02    7.3293734375e+04
    1.4849778265e-02    7.3529179688e+04
    1.4859884977e-02    7.3774156250e+04
    1.4869994484e-02    7.4022859375e+04
    1.4879859053e-02    7.4269210938e+04
    1.4889978804e-02    7.4525945312e+04
    1.4899852686e-02    7.4780367188e+04
    1.4909983613e-02    7.5045421875e+04
    1.4919864014e-02    7.5308093750e+04
    1.4929752797e-02    7.5575320312e+04
    1.4939897694e-02    7.5854054688e+04
    1.4949795790e-02    7.6130421875e+04
    1.4959950000e-02    7.6418757812e+04
    1.4969850890e-02    7.6704976562e+04
    1.4979762025e-02    7.6996789062e+04
    1.4989927411e-02    7.7301820312e+04
    1.4999846928e-02    7.7605171875e+04
    1.5009768307e-02    7.7914554688e+04
    1.5019944869e-02    7.8238359375e+04
    1.5029875562e-02    7.8560882812e+04
    1.5039803460e-02    7.8890140625e+04
    1.5049992129e-02    7.9235906250e+04
    1.5059930272e-02    7.9581140625e+04
    1.5069871210e-02    7.9934789062e+04
    1.5079820529e-02    8.0297703125e+04
    1.5089769848e-02    8.0670257812e+04
    1.5099976212e-02    8.1063257812e+04
    1.5109929256e-02    8.1457984375e+04
    1.5119881369e-02    8.1865000000e+04
    1.5129840933e-02    8.2285812500e+04
    1.5139797702e-02    8.2721328125e+04
    1.5149757266e-02    8.3173500000e+04
    1.5159980394e-02    8.3693648438e+04
    1.5169951133e-02    1.0881860156e+05
    1.5179924667e-02    1.1374714844e+05
    1.5189900063e-02    1.1307071875e+05
    1.5199874528e-02    1.1264532031e+05
    1.5209848993e-02    1.1219108594e+05
    1.5219823457e-02    1.1175603906e+05
    1.5229796991e-02    1.1133194531e+05
    1.5239770524e-02    1.1092013281e+05
    1.5249999240e-02    1.1051043750e+05
    1.5259971842e-02    1.1012263281e+05
    1.5269945376e-02    1.0974528906e+05
    1.5279919840e-02    1.0937788281e+05
    1.5289895236e-02    1.0901949219e+05
    1.5299871564e-02    1.0866977344e+05
    1.5309848823e-02    1.0832910156e+05
    1.5319826081e-02    1.0799637500e+05
    1.5329805203e-02    1.0767258594e+05
    1.5339783393e-02    1.0735627344e+05
    1.5349762514e-02    1.0704822656e+05
    1.5359996818e-02    1.0673927344e+05
    1.5369975008e-02    1.0644627344e+05
    1.5379954129e-02    1.0615968750e+05
    1.5389932320e-02    1.0588058594e+05
    1.5399911441e-02    1.0560740625e+05
    1.5409891494e-02    1.0534140625e+05
    1.5419871546e-02    1.0508178125e+05
    1.5429852530e-02    1.0482886719e+05
    1.5439834446e-02    1.0458165625e+05
    1.5449816361e-02    1.0434013281e+05
    1.5459799208e-02    1.0410441406e+05
    1.5469782986e-02    1.0387178906e+05
    1.5479765832e-02    1.0364596875e+05
    1.5489750542e-02    1.0342571094e+05
    1.5499991365e-02    1.0320502344e+05
    1.5509976074e-02    1.0299457031e+05
    1.5519961715e-02    1.0278864844e+05
    1.5529948287e-02    1.0258740625e+05
    1.5539934859e-02    1.0239074219e+05
    1.5549921431e-02    1.0219850781e+05
    1.5559908934e-02    1.0201016406e+05
    1.5569896437e-02    1.0182510156e+05
    1.5579883941e-02    1.0164333594e+05
    1.5589871444e-02    1.0146532031e+05
    1.5599859878e-02    1.0129187500e+05
    1.5609847382e-02    1.0112322656e+05
    1.5619835816e-02    1.0095908594e+05
    1.5629822388e-02    1.0079900000e+05
    1.5639811754e-02    1.0064230469e+05
    1.5649799258e-02    1.0048834375e+05
    1.5659788623e-02    1.0033696094e+05
    1.5669777989e-02    1.0018821094e+05
    1.5679772943e-02    1.0004212500e+05
    1.5689771622e-02    9.9899335938e+04
    1.5699775890e-02    9.9760351562e+04
    1.5709778294e-02    9.9624750000e+04
    1.5719780698e-02    9.9492382812e+04
    1.5729783103e-02    9.9364023438e+04
    1.5739781782e-02    9.9237632812e+04
    1.5749782324e-02    9.9113335938e+04
    1.5759781003e-02    9.8991562500e+04
    1.5769779682e-02    9.8872343750e+04
    1.5779782087e-02    9.8756117188e+04
    1.5789786354e-02    9.8642664062e+04
    1.5799792483e-02    9.8531750000e+04
    1.5809798613e-02    9.8423164062e+04
    1.5819804743e-02    9.8316867188e+04
    1.5829810873e-02    9.8212992188e+04
    1.5839815140e-02    9.8111445312e+04
    1.5849821270e-02    9.8012601562e+04
    1.5859827399e-02    9.7916226562e+04
    1.5869833529e-02    9.7822531250e+04
    1.5879839659e-02    9.7731476562e+04
    1.5889845788e-02    9.7642867188e+04
    1.5899851918e-02    9.7556468750e+04
    1.5909858048e-02    9.7471898438e+04
    1.5919864178e-02    9.7388976562e+04
    1.5929872170e-02    9.7307843750e+04
    1.5939880162e-02    9.7228601562e+04
    1.5949886292e-02    9.7151343750e+04
    1.5959894285e-02    9.7076351562e+04
    1.5969900414e-02    9.7003289062e+04
    1.5979906544e-02    9.6932070312e+04
    1.5989914536e-02    9.6862601562e+04
    1.5999920666e-02    9.6794335938e+04
    1.6009928659e-02    9.6728429688e+04
    1.6019936651e-02    9.6665460938e+04
    1.6029944643e-02    9.6604773438e+04
    1.6039950773e-02    9.6545867188e+04
    1.6049958766e-02    9.6488054688e+04
    1.6059966758e-02    9.6431335938e+04
    1.6069972888e-02    9.6375992188e+04
    1.6079980880e-02    9.6322351562e+04
    1.6089988872e-02    9.6271148438e+04
    1.6099996865e-02    9.6221851562e+04
    1.6109747812e-02    9.6175710938e+04
    1.6119755805e-02    9.6129460938e+04
    1.6129763797e-02    9.6084601562e+04
    1.6139771789e-02    9.6041304688e+04
    1.6149779782e-02    9.5999726562e+04
    1.6159787774e-02    9.5960007812e+04
    1.6169795766e-02    9.5921835938e+04
    1.6179803759e-02    9.5885125000e+04
    1.6189811751e-02    9.5849835938e+04
    1.6199819744e-02    9.5815757812e+04
    1.6209829599e-02    9.5784007812e+04
    1.6219837591e-02    9.5752843750e+04
    1.6229845583e-02    9.5724398438e+04
    1.6239853576e-02    9.5696398438e+04
    1.6249863431e-02    9.5669726562e+04
    1.6259871423e-02    9.5645375000e+04
    1.6269879416e-02    9.5621835938e+04
    1.6279889271e-02    9.5599398438e+04
    1.6289897263e-02    9.5578257812e+04
    1.6299905255e-02    9.5558867188e+04
    1.6309915110e-02    9.5540906250e+04
    1.6319923103e-02    9.5524601562e+04
    1.6329932958e-02    9.5509476562e+04
    1.6339940950e-02    9.5495585938e+04
    1.6349950805e-02    9.5482914062e+04
    1.6359958798e-02    9.5471648438e+04
    1.6369968653e-02    9.5461500000e+04
    1.6379976645e-02    9.5452554688e+04
    1.6389986500e-02    9.5445117188e+04
    1.6399996355e-02    9.5438726562e+04
    1.6409749165e-02    9.5433523438e+04
    1.6419757158e-02    9.5429281250e+04
    1.6429767013e-02    9.5426031250e+04
    1.6439776868e-02    9.5424226562e+04
    1.6449784860e-02    9.5424320312e+04
    1.6459794715e-02    9.5425343750e+04
    1.6469804570e-02    9.5428226562e+04
    1.6479814425e-02    9.5431664062e+04
    1.6489822417e-02    9.5435617188e+04
    1.6499832273e-02    9.5441250000e+04
    1.6509842128e-02    9.5447218750e+04
    1.6519851983e-02    9.5454812500e+04
    1.6529861838e-02    9.5464601562e+04
    1.6539871693e-02    9.5475226562e+04
    1.6549881548e-02    9.5486273438e+04
    1.6559891403e-02    9.5498062500e+04
    1.6569901258e-02    9.5510523438e+04
    1.6579911113e-02    9.5524226562e+04
    1.6589920968e-02    9.5539500000e+04
    1.6599930823e-02    9.5556164062e+04
    1.6609940678e-02    9.5574164062e+04
    1.6619950533e-02    9.5592976562e+04
    1.6629960388e-02    9.5612023438e+04
    1.6639972106e-02    9.5631132812e+04
    1.6649981961e-02    9.5650601562e+04
    1.6659991816e-02    9.5670906250e+04
    1.6669746488e-02    9.5692335938e+04
    1.6679756343e-02    9.5716476562e+04
    1.6689768061e-02    9.5742960938e+04
    1.6699777916e-02    9.5771101562e+04
    1.6709789634e-02    9.5799835938e+04
    1.6719799489e-02    9.5828281250e+04
    1.6729811206e-02    9.5855523438e+04
    1.6739822924e-02    9.5881601562e+04
    1.6749834642e-02    9.5907125000e+04
    1.6759846359e-02    9.5933367188e+04
    1.6769856215e-02    9.5961273438e+04
    1.6779867932e-02    9.5991398438e+04
    1.6789879650e-02    9.6024101562e+04
    1.6799891368e-02    9.6059023438e+04
    1.6809903085e-02    9.6095539062e+04
    1.6819914803e-02    9.6132960938e+04
    1.6829926521e-02    9.6170437500e+04
    1.6839940101e-02    9.6207187500e+04
    1.6849951819e-02    9.6242625000e+04
    1.6859965399e-02    9.6276710938e+04
    1.6869978979e-02    9.6309875000e+04
    1.6879990697e-02    9.6342710938e+04
    1.6889747232e-02    9.6374789062e+04
    1.6899760813e-02    9.6408132812e+04
    1.6909772530e-02    9.6442070312e+04
    1.6919786111e-02    9.6476656250e+04
    1.6929799691e-02    9.6511781250e+04
    1.6939813271e-02    9.6547148438e+04
    1.6949824989e-02    9.6582406250e+04
    1.6959838569e-02    9.6617148438e+04
    1.6969852149e-02    9.6651085938e+04
    1.6979867592e-02    9.6684367188e+04
    1.6989881173e-02    9.6717132812e+04
    1.6999894753e-02    9.6749460938e+04
    1.7009910196e-02    9.6781320312e+04
    1.7019923776e-02    9.6812789062e+04
    1.7029939219e-02    9.6843695312e+04
    1.7039952800e-02    9.6874039062e+04
    1.7049968243e-02    9.6903882812e+04
    1.7059983686e-02    9.6933304688e+04
    1.7069999129e-02    9.6962218750e+04
    1.7079757527e-02    9.6989929688e+04
    1.7089772969e-02    9.7018093750e+04
    1.7099788412e-02    9.7046101562e+04
    1.7109803855e-02    9.7074226562e+04
    1.7119819298e-02    9.7102625000e+04
    1.7129834741e-02    9.7131523438e+04
    1.7139850184e-02    9.7161226562e+04
    1.7149865627e-02    9.7191851562e+04
    1.7159882933e-02    9.7223601562e+04
    1.7169898376e-02    9.7256476562e+04
    1.7179915681e-02    9.7290195312e+04
    1.7189932987e-02    9.7323507812e+04
    1.7199950293e-02    9.7354460938e+04
    1.7209967598e-02    9.7380773438e+04
    1.7219984904e-02    9.7400585938e+04
    1.7229745165e-02    9.7412500000e+04
    1.7239762470e-02    9.7417148438e+04
    1.7249781638e-02    9.7415382812e+04
    1.7259798944e-02    9.7415585938e+04
    1.7269818112e-02    9.7422648438e+04
    1.7279835418e-02    9.7437187500e+04
    1.7289854586e-02    9.7458148438e+04
    1.7299873754e-02    9.7482914062e+04
    1.7309891060e-02    9.7508210938e+04
    1.7319910228e-02    9.7531101562e+04
    1.7329929397e-02    9.7550257812e+04
    1.7339948565e-02    9.7566500000e+04
    1.7349967733e-02    9.7581710938e+04
    1.7359986901e-02    9.7597414062e+04
    1.7369749025e-02    9.7613531250e+04
    1.7379770055e-02    9.7630289062e+04
    1.7389789224e-02    9.7646726562e+04
    1.7399808392e-02    9.7663023438e+04
    1.7409829423e-02    9.7679789062e+04
    1.7419848591e-02    9.7697476562e+04
    1.7429869622e-02    9.7715820312e+04
    1.7439888790e-02    9.7734164062e+04
    1.7449909821e-02    9.7751960938e+04
    1.7459930852e-02    9.7768843750e+04
    1.7469951883e-02    9.7784968750e+04
    1.7479972914e-02    9.7800867188e+04
    1.7489993945e-02    9.7817101562e+04
    1.7499757931e-02    9.7833570312e+04
    1.7509778962e-02    9.7851226562e+04
    1.7519799992e-02    9.7869304688e+04
    1.7529822886e-02    9.7887304688e+04
    1.7539843917e-02    9.7904773438e+04
    1.7549864948e-02    9.7921625000e+04
    1.7559887841e-02    9.7938335938e+04
    1.7569908872e-02    9.7955273438e+04
    1.7579931766e-02    9.7972812500e+04
    1.7589954659e-02    9.7990710938e+04
    1.7599975690e-02    9.8008562500e+04
    1.7609998584e-02    9.8026093750e+04
    1.7619764432e-02    9.8042773438e+04
    1.7629787326e-02    9.8059726562e+04
    1.7639810219e-02    9.8076898438e+04
    1.7649833113e-02    9.8094531250e+04
    1.7659856007e-02    9.8112507812e+04
    1.7669878900e-02    9.8130492188e+04
    1.7679901794e-02    9.8148125000e+04
    1.7689926550e-02    9.8165398438e+04
    1.7699949443e-02    9.8182617188e+04
    1.7709972337e-02    9.8200210938e+04
    1.7719997093e-02    9.8218335938e+04
    1.7729762942e-02    9.8236351562e+04
    1.7739787698e-02    9.8254820312e+04
    1.7749810591e-02    9.8272968750e+04
    1.7759835348e-02    9.8290781250e+04
    1.7769860104e-02    9.8308476562e+04
    1.7779884860e-02    9.8326335938e+04
    1.7789907753e-02    9.8344460938e+04
    1.7799932510e-02    9.8362679688e+04
    1.7809957266e-02    9.8380726562e+04
    1.7819982022e-02    9.8398593750e+04
    1.7829749733e-02    9.8415976562e+04
    1.7839774489e-02    9.8433937500e+04
    1.7849801108e-02    9.8452054688e+04
    1.7859825864e-02    9.8470289062e+04
    1.7869850621e-02    9.8488476562e+04
    1.7879877239e-02    9.8506585938e+04
    1.7889901996e-02    9.8524687500e+04
    1.7899926752e-02    9.8542851562e+04
    1.7909953371e-02    9.8561070312e+04
    1.7919979990e-02    9.8579273438e+04
    1.7929747701e-02    9.8596898438e+04
    1.7939774320e-02    9.8614867188e+04
    1.7949800938e-02    9.8632843750e+04
    1.7959827557e-02    9.8650914062e+04
    1.7969852313e-02    9.8669117188e+04
    1.7979878932e-02    9.8687335938e+04
    1.7989905551e-02    9.8705523438e+04
    1.7999932170e-02    9.8723632812e+04
    1.8009958789e-02    9.8741679688e+04
    1.8019987270e-02    9.8759664062e+04
    1.8029756844e-02    9.8777132812e+04
    1.8039783463e-02    9.8795070312e+04
    1.8049810082e-02    9.8813093750e+04
    1.8059838563e-02    9.8831195312e+04
    1.8069865182e-02    9.8849304688e+04
    1.8079891801e-02    9.8867335938e+04
    1.8089920282e-02    9.8885164062e+04
    1.8099946901e-02    9.8902875000e+04
    1.8109975383e-02    9.8920539062e+04
    1.8119746819e-02    9.8937664062e+04
    1.8129773438e-02    9.8955281250e+04
    1.8139801919e-02    9.8972976562e+04
    1.8149830401e-02    9.8990789062e+04
    1.8159858882e-02    9.9008601562e+04
    1.8169887364e-02    9.9026343750e+04
    1.8179915845e-02    9.9043960938e+04
    1.8189944327e-02    9.9061523438e+04
    1.8199972808e-02    9.9079085938e+04
    1.8209744245e-02    9.9096164062e+04
    1.8219772726e-02    9.9113585938e+04
    1.8229801208e-02    9.9130851562e+04
    1.8239829689e-02    9.9148023438e+04
    1.8249858171e-02    9.9165039062e+04
    1.8259888515e-02    9.9181914062e+04
    1.8269916996e-02    9.9198710938e+04
    1.8279945478e-02    9.9215468750e+04
    1.8289975822e-02    9.9232273438e+04
    1.8299747258e-02    9.9248773438e+04
    1.8309777603e-02    9.9265882812e+04
    1.8319806084e-02    9.9283132812e+04
    1.8329836428e-02    9.9300398438e+04
    1.8339866772e-02    9.9317539062e+04
    1.8349895254e-02    9.9334375000e+04
    1.8359925598e-02    9.9350773438e+04
    1.8369955942e-02    9.9366687500e+04
    1.8379986286e-02    9.9382226562e+04
    1.8389757723e-02    9.9397179688e+04
    1.8399788067e-02    9.9412445312e+04
    1.8409818411e-02    9.9427742188e+04
    1.8419848755e-02    9.9443148438e+04
    1.8429879099e-02    9.9458601562e+04
    1.8439909443e-02    9.9474070312e+04
    1.8449939787e-02    9.9489500000e+04
    1.8459971994e-02    9.9504898438e+04
    1.8469745293e-02    9.9519851562e+04
    1.8479775637e-02    9.9535148438e+04
    1.8489805982e-02    9.9550414062e+04
    1.8499836326e-02    9.9565593750e+04
    1.8509868532e-02    9.9580523438e+04
    1.8519898877e-02    9.9595085938e+04
    1.8529929221e-02    9.9609273438e+04
    1.8539961427e-02    9.9623195312e+04
    1.8549991772e-02    9.9637062500e+04
    1.8559766933e-02    9.9650632812e+04
    1.8569797277e-02    9.9664539062e+04
    1.8579829484e-02    9.9678289062e+04
    1.8589859828e-02    9.9691718750e+04
    1.8599892035e-02    9.9704789062e+04
    1.8609922379e-02    9.9717585938e+04
    1.8619954586e-02    9.9730132812e+04
    1.8629986793e-02    9.9742531250e+04
    1.8639761955e-02    9.9754585938e+04
    1.8649792299e-02    9.9767125000e+04
    1.8659824505e-02    9.9780023438e+04
    1.8669856712e-02    9.9793164062e+04
    1.8679888919e-02    9.9806156250e+04
    1.8689921126e-02    9.9818460938e+04
    1.8699953333e-02    9.9829781250e+04
    1.8709985539e-02    9.9840187500e+04
    1.8719758838e-02    9.9849820312e+04
    1.8729791045e-02    9.9859726562e+04
    1.8739823252e-02    9.9870132812e+04
    1.8749855459e-02    9.9881281250e+04
    1.8759887666e-02    9.9893023438e+04
    1.8769921735e-02    9.9904976562e+04
    1.8779953942e-02    9.9916695312e+04
    1.8789986148e-02    9.9927781250e+04
    1.8799761310e-02    9.9937742188e+04
    1.8809793517e-02    9.9947132812e+04
    1.8819825724e-02    9.9955929688e+04
    1.8829857931e-02    9.9964523438e+04
    1.8839892000e-02    9.9973210938e+04
    1.8849924207e-02    9.9982148438e+04
    1.8859956414e-02    9.9991210938e+04
    1.8869988620e-02    1.0000021094e+05
    1.8879765645e-02    1.0000881250e+05
    1.8889797851e-02    1.0001739844e+05
    1.8899831921e-02    1.0002569531e+05
    1.8909864128e-02    1.0003367969e+05
    1.8919896334e-02    1.0004127344e+05
    1.8929930404e-02    1.0004839844e+05
    1.8939962611e-02    1.0005506250e+05
    1.8949994817e-02    1.0006132031e+05
    1.8959771842e-02    1.0006703906e+05
    1.8969804049e-02    1.0007257031e+05
    1.8979838118e-02    1.0007775781e+05
    1.8989870325e-02    1.0008261719e+05
    1.8999904394e-02    1.0008718750e+05
    1.9009936601e-02    1.0009157031e+05
    1.9019970670e-02    1.0009591406e+05
    1.9029745832e-02    1.0010018750e+05
    1.9039779902e-02    1.0010461719e+05
    1.9049812108e-02    1.0010899219e+05
    1.9059846178e-02    1.0011321094e+05
    1.9069880247e-02    1.0011718750e+05
    1.9079912454e-02    1.0012085156e+05
    1.9089946523e-02    1.0012408594e+05
    1.9099978730e-02    1.0012674219e+05
    1.9109755754e-02    1.0012875000e+05
    1.9119789824e-02    1.0013025000e+05
    1.9129822031e-02    1.0013130469e+05
    1.9139856100e-02    1.0013205469e+05
    1.9149890170e-02    1.0013261719e+05
    1.9159922376e-02    1.0013303125e+05
    1.9169956446e-02    1.0013334375e+05
    1.9179990515e-02    1.0013358594e+05
    1.9189765677e-02    1.0013364844e+05
    1.9199799746e-02    1.0013341406e+05
    1.9209833816e-02    1.0013281250e+05
    1.9219866022e-02    1.0013171094e+05
    1.9229900092e-02    1.0013005469e+05
    1.9239934161e-02    1.0012783594e+05
    1.9249966368e-02    1.0012511719e+05
    1.9259743392e-02    1.0012209375e+05
    1.9269777462e-02    1.0011865625e+05
    1.9279809669e-02    1.0011490625e+05
    1.9289843738e-02    1.0011085156e+05
    1.9299877807e-02    1.0010647656e+05
    1.9309911877e-02    1.0010175781e+05
    1.9319944084e-02    1.0009664844e+05
    1.9329978153e-02    1.0009106250e+05
    1.9339755177e-02    1.0008508594e+05
    1.9349789247e-02    1.0007837500e+05
    1.9359821454e-02    1.0007118750e+05
    1.9369855523e-02    1.0006362500e+05
    1.9379889593e-02    1.0005571875e+05
    1.9389923662e-02    1.0004742969e+05
    1.9399955869e-02    1.0003871875e+05
    1.9409989938e-02    1.0002960156e+05
    1.9419766963e-02    1.0002035156e+05
    1.9429799169e-02    1.0001046875e+05
    1.9439833239e-02    1.0000012500e+05
[...]
    1.1513970792e-01    1.0123131250e+05
    1.1514982581e-01    1.0123132031e+05
    1.1515993625e-01    1.0123132031e+05
    1.1516975611e-01    1.0123133594e+05
    1.1517986655e-01    1.0123133594e+05
    1.1518998444e-01    1.0123133594e+05
    1.1519979686e-01    1.0123133594e+05
    1.1520991474e-01    1.0123133594e+05
    1.1521972716e-01    1.0123133594e+05
    1.1522984505e-01    1.0123132031e+05
    1.1523995548e-01    1.0123130469e+05
    1.1524977535e-01    1.0123128906e+05
    1.1525988579e-01    1.0123127344e+05
    1.1526999623e-01    1.0123125781e+05
    1.1527981609e-01    1.0123125000e+05
    1.1528992653e-01    1.0123122656e+05
    1.1529974639e-01    1.0123122656e+05
    1.1530985683e-01    1.0123122656e+05
    1.1531997472e-01    1.0123121875e+05
    1.1532978714e-01    1.0123121875e+05
    1.1533990502e-01    1.0123121094e+05
    1.1534971744e-01    1.0123121094e+05
    1.1535983533e-01    1.0123121094e+05
    1.1536994576e-01    1.0123121094e+05
    1.1537976563e-01    1.0123119531e+05
    1.1538987607e-01    1.0123119531e+05
    1.1539999396e-01    1.0123117969e+05
    1.1540980637e-01    1.0123116406e+05
    1.1541992426e-01    1.0123116406e+05
    1.1542973667e-01    1.0123114844e+05
    1.1543985456e-01    1.0123113281e+05
    1.1544996500e-01    1.0123112500e+05
    1.1545978487e-01    1.0123110156e+05
    1.1546989530e-01    1.0123109375e+05
    1.1547971517e-01    1.0123108594e+05
    1.1548982561e-01    1.0123107031e+05
    1.1549994349e-01    1.0123106250e+05
    1.1550975591e-01    1.0123105469e+05
    1.1551987380e-01    1.0123105469e+05
    1.1552998424e-01    1.0123103906e+05
    1.1553979665e-01    1.0123103906e+05
    1.1554991454e-01    1.0123103906e+05
    1.1555972695e-01    1.0123103906e+05
    1.1556984484e-01    1.0123103906e+05
    1.1557995528e-01    1.0123103906e+05
    1.1558977515e-01    1.0123103906e+05
    1.1559988558e-01    1.0123103906e+05
    1.1560970545e-01    1.0123103906e+05
    1.1561981589e-01    1.0123103125e+05
    1.1562993377e-01    1.0123102344e+05
    1.1563974619e-01    1.0123100781e+05
    1.1564986408e-01    1.0123099219e+05
    1.1565997452e-01    1.0123097656e+05
    1.1566979438e-01    1.0123096875e+05
    1.1567990482e-01    1.0123096094e+05
    1.1568972468e-01    1.0123094531e+05
    1.1569983512e-01    1.0123094531e+05
    1.1570995301e-01    1.0123093750e+05
    1.1571976542e-01    1.0123093750e+05
    1.1572988331e-01    1.0123092969e+05
    1.1573999375e-01    1.0123091406e+05
    1.1574981362e-01    1.0123089844e+05
    1.1575992405e-01    1.0123088281e+05
    1.1576974392e-01    1.0123085156e+05
    1.1577985436e-01    1.0123083594e+05
    1.1578997225e-01    1.0123081250e+05
    1.1579978466e-01    1.0123078906e+05
    1.1580989510e-01    1.0123077344e+05
    1.1581971496e-01    1.0123075781e+05
    1.1582982540e-01    1.0123074219e+05
    1.1583994329e-01    1.0123072656e+05
    1.1584975570e-01    1.0123072656e+05
    1.1585987359e-01    1.0123072656e+05
    1.1586998403e-01    1.0123074219e+05
    1.1587980390e-01    1.0123074219e+05
    1.1588991433e-01    1.0123074219e+05
    1.1589973420e-01    1.0123074219e+05
    1.1590984464e-01    1.0123074219e+05
    1.1591996253e-01    1.0123074219e+05
    1.1592977494e-01    1.0123074219e+05
    1.1593989283e-01    1.0123072656e+05
    1.1594970524e-01    1.0123072656e+05
    1.1595982313e-01    1.0123072656e+05
    1.1596993357e-01    1.0123071875e+05
    1.1597975343e-01    1.0123071094e+05
    1.1598986387e-01    1.0123071094e+05
    1.1599998176e-01    1.0123071094e+05
    1.1600979418e-01    1.0123069531e+05
    1.1601991206e-01    1.0123067969e+05
    1.1602972448e-01    1.0123066406e+05
    1.1603984237e-01    1.0123065625e+05
    1.1604995281e-01    1.0123064844e+05
    1.1605977267e-01    1.0123061719e+05
    1.1606988311e-01    1.0123060156e+05
    1.1607999355e-01    1.0123058594e+05
    1.1608981341e-01    1.0123057031e+05
    1.1609992385e-01    1.0123057031e+05
    1.1610974371e-01    1.0123057031e+05
    1.1611985415e-01    1.0123057031e+05
    1.1612997204e-01    1.0123058594e+05
    1.1613978446e-01    1.0123058594e+05
    1.1614990234e-01    1.0123058594e+05
    1.1615971476e-01    1.0123058594e+05
    1.1616983265e-01    1.0123058594e+05
    1.1617994308e-01    1.0123058594e+05
    1.1618976295e-01    1.0123057031e+05
    1.1619987339e-01    1.0123055469e+05
    1.1620999128e-01    1.0123053906e+05
    1.1621980369e-01    1.0123053125e+05
    1.1622992158e-01    1.0123052344e+05
    1.1623973399e-01    1.0123052344e+05
    1.1624985188e-01    1.0123050781e+05
    1.1625996232e-01    1.0123050000e+05
    1.1626978219e-01    1.0123049219e+05
    1.1627989262e-01    1.0123047656e+05
    1.1628971249e-01    1.0123047656e+05
    1.1629982293e-01    1.0123046094e+05
    1.1630994081e-01    1.0123046094e+05
    1.1631975323e-01    1.0123044531e+05
    1.1632987112e-01    1.0123042969e+05
    1.1633998156e-01    1.0123041406e+05
    1.1634980142e-01    1.0123041406e+05
    1.1635991186e-01    1.0123039844e+05
    1.1636973172e-01    1.0123039844e+05
    1.1637984216e-01    1.0123038281e+05
    1.1638995260e-01    1.0123038281e+05
    1.1639977247e-01    1.0123037500e+05
    1.1640988290e-01    1.0123037500e+05
    1.1642000079e-01    1.0123037500e+05
    1.1642981321e-01    1.0123037500e+05
    1.1643993109e-01    1.0123038281e+05
    1.1644974351e-01    1.0123038281e+05
    1.1645986140e-01    1.0123037500e+05
    1.1646997184e-01    1.0123037500e+05
    1.1647979170e-01    1.0123036719e+05
    1.1648990214e-01    1.0123035156e+05
    1.1649972200e-01    1.0123033594e+05
    1.1650983244e-01    1.0123032031e+05
    1.1651995033e-01    1.0123030469e+05
    1.1652976274e-01    1.0123028125e+05
    1.1653988063e-01    1.0123025781e+05
    1.1654999107e-01    1.0123024219e+05
    1.1655981094e-01    1.0123022656e+05
    1.1656992137e-01    1.0123021875e+05
    1.1657974124e-01    1.0123021094e+05
    1.1658985168e-01    1.0123021094e+05
    1.1659996957e-01    1.0123019531e+05
    1.1660978198e-01    1.0123019531e+05
    1.1661989987e-01    1.0123018750e+05
    1.1662971228e-01    1.0123017969e+05
    1.1663983017e-01    1.0123017969e+05
    1.1664994061e-01    1.0123016406e+05
    1.1665976048e-01    1.0123016406e+05
    1.1666987091e-01    1.0123014844e+05
    1.1667998135e-01    1.0123014844e+05
    1.1668980122e-01    1.0123013281e+05
    1.1669991165e-01    1.0123011719e+05
    1.1670973152e-01    1.0123010156e+05
    1.1671984196e-01    1.0123010156e+05
    1.1672995985e-01    1.0123009375e+05
    1.1673977226e-01    1.0123008594e+05
    1.1674989015e-01    1.0123008594e+05
    1.1675970256e-01    1.0123007031e+05
    1.1676982045e-01    1.0123006250e+05
    1.1677993089e-01    1.0123006250e+05
    1.1678975075e-01    1.0123005469e+05
    1.1679986119e-01    1.0123003906e+05
    1.1680997908e-01    1.0123003906e+05
    1.1681979150e-01    1.0123003125e+05
    1.1682990938e-01    1.0123003125e+05
    1.1683972180e-01    1.0123003125e+05
    1.1684983969e-01    1.0123002344e+05
    1.1685995013e-01    1.0123002344e+05
    1.1686976999e-01    1.0123002344e+05
    1.1687988043e-01    1.0123002344e+05
    1.1688999832e-01    1.0123000781e+05
    1.1689981073e-01    1.0123000000e+05
    1.1690992862e-01    1.0122999219e+05
    1.1691974103e-01    1.0122997656e+05
    1.1692985892e-01    1.0122996875e+05
    1.1693996936e-01    1.0122996094e+05
    1.1694978178e-01    1.0122994531e+05
    1.1695989966e-01    1.0122992969e+05
    1.1696971208e-01    1.0122991406e+05
    1.1697982997e-01    1.0122990625e+05
    1.1698994040e-01    1.0122989844e+05
    1.1699976027e-01    1.0122988281e+05
    1.1700987071e-01    1.0122987500e+05
    1.1701998860e-01    1.0122986719e+05
    1.1702980101e-01    1.0122985156e+05
    1.1703991890e-01    1.0122985156e+05
    1.1704973131e-01    1.0122984375e+05
    1.1705984920e-01    1.0122983594e+05
    1.1706995964e-01    1.0122983594e+05
    1.1707977951e-01    1.0122982031e+05
    1.1708988994e-01    1.0122981250e+05
    1.1709970981e-01    1.0122980469e+05
    1.1710982025e-01    1.0122978906e+05
    1.1711993814e-01    1.0122978906e+05
    1.1712975055e-01    1.0122978906e+05
    1.1713986844e-01    1.0122978125e+05
    1.1714997888e-01    1.0122977344e+05
    1.1715979874e-01    1.0122977344e+05
    1.1716990918e-01    1.0122977344e+05
    1.1717972904e-01    1.0122975781e+05
    1.1718983948e-01    1.0122975781e+05
    1.1719995737e-01    1.0122975000e+05
    1.1720976979e-01    1.0122974219e+05
    1.1721988022e-01    1.0122972656e+05
    1.1722999811e-01    1.0122972656e+05
    1.1723981053e-01    1.0122971875e+05
    1.1724992841e-01    1.0122971094e+05
    1.1725974083e-01    1.0122971094e+05
    1.1726985872e-01    1.0122969531e+05
    1.1727996916e-01    1.0122968750e+05
    1.1728978902e-01    1.0122967969e+05
    1.1729989946e-01    1.0122966406e+05
    1.1730971932e-01    1.0122966406e+05
    1.1731982976e-01    1.0122965625e+05
    1.1732994765e-01    1.0122965625e+05
    1.1733976007e-01    1.0122964844e+05
    1.1734987795e-01    1.0122964844e+05
    1.1735998839e-01    1.0122963281e+05
    1.1736980826e-01    1.0122962500e+05
    1.1737991869e-01    1.0122961719e+05
    1.1738973856e-01    1.0122960156e+05
    1.1739984900e-01    1.0122960156e+05
    1.1740996689e-01    1.0122960156e+05
    1.1741977930e-01    1.0122959375e+05
    1.1742989719e-01    1.0122959375e+05
    1.1743970960e-01    1.0122958594e+05
    1.1744982749e-01    1.0122958594e+05
    1.1745993793e-01    1.0122956250e+05
    1.1746975780e-01    1.0122955469e+05
    1.1747986823e-01    1.0122953906e+05
    1.1748998612e-01    1.0122953125e+05
    1.1749979854e-01    1.0122952344e+05
    1.1750990897e-01    1.0122950781e+05
    1.1751972884e-01    1.0122950000e+05
    1.1752983928e-01    1.0122949219e+05
    1.1753995717e-01    1.0122947656e+05
    1.1754976958e-01    1.0122947656e+05
    1.1755988747e-01    1.0122947656e+05
    1.1756969988e-01    1.0122946875e+05
    1.1757981777e-01    1.0122946094e+05
    1.1758992821e-01    1.0122946094e+05
    1.1759974808e-01    1.0122944531e+05
    1.1760985851e-01    1.0122943750e+05
    1.1761997640e-01    1.0122942969e+05
    1.1762978882e-01    1.0122941406e+05
    1.1763990670e-01    1.0122941406e+05
    1.1764971912e-01    1.0122940625e+05
    1.1765983701e-01    1.0122939844e+05
    1.1766994745e-01    1.0122939844e+05
    1.1767976731e-01    1.0122938281e+05
    1.1768987775e-01    1.0122938281e+05
    1.1769999564e-01    1.0122937500e+05
    1.1770980805e-01    1.0122936719e+05
    1.1771992594e-01    1.0122935156e+05
    1.1772973835e-01    1.0122935156e+05
    1.1773985624e-01    1.0122935156e+05
    1.1774996668e-01    1.0122934375e+05
    1.1775978655e-01    1.0122933594e+05
    1.1776989698e-01    1.0122933594e+05
    1.1777971685e-01    1.0122931250e+05
    1.1778982729e-01    1.0122930469e+05
    1.1779994518e-01    1.0122928906e+05
    1.1780975759e-01    1.0122928125e+05
    1.1781987548e-01    1.0122927344e+05
    1.1782998592e-01    1.0122927344e+05
    1.1783979833e-01    1.0122925781e+05
    1.1784991622e-01    1.0122925000e+05
    1.1785972863e-01    1.0122924219e+05
    1.1786984652e-01    1.0122922656e+05
    1.1787995696e-01    1.0122922656e+05
    1.1788977683e-01    1.0122921875e+05
    1.1789988726e-01    1.0122921094e+05
    1.1790970713e-01    1.0122921094e+05
    1.1791981757e-01    1.0122921094e+05
    1.1792993546e-01    1.0122919531e+05
    1.1793974787e-01    1.0122918750e+05
    1.1794986576e-01    1.0122917969e+05
    1.1795997620e-01    1.0122916406e+05
    1.1796979606e-01    1.0122916406e+05
    1.1797990650e-01    1.0122915625e+05
    1.1798972636e-01    1.0122914844e+05
    1.1799983680e-01    1.0122914844e+05
    1.1800995469e-01    1.0122913281e+05
    1.1801976711e-01    1.0122912500e+05
    1.1802988499e-01    1.0122911719e+05
    1.1803999543e-01    1.0122911719e+05
    1.1804981530e-01    1.0122910156e+05
    1.1805992573e-01    1.0122910156e+05
    1.1806974560e-01    1.0122909375e+05
    1.1807985604e-01    1.0122909375e+05
    1.1808997393e-01    1.0122908594e+05
    1.1809978634e-01    1.0122908594e+05
    1.1810990423e-01    1.0122907031e+05
    1.1811971664e-01    1.0122907031e+05
    1.1812983453e-01    1.0122906250e+05
    1.1813994497e-01    1.0122905469e+05
    1.1814976484e-01    1.0122903906e+05
    1.1815987527e-01    1.0122903906e+05
    1.1816998571e-01    1.0122903125e+05
    1.1817980558e-01    1.0122902344e+05
    1.1818991601e-01    1.0122902344e+05
    1.1819973588e-01    1.0122900781e+05
    1.1820984632e-01    1.0122900000e+05
    1.1821996421e-01    1.0122899219e+05
    1.1822977662e-01    1.0122899219e+05
    1.1823989451e-01    1.0122897656e+05
    1.1824970692e-01    1.0122897656e+05
    1.1825982481e-01    1.0122896875e+05
    1.1826993525e-01    1.0122896094e+05
    1.1827975512e-01    1.0122896094e+05
    1.1828986555e-01    1.0122896094e+05
    1.1829998344e-01    1.0122894531e+05
    1.1830979586e-01    1.0122893750e+05
    1.1831991374e-01    1.0122892969e+05
    1.1832972616e-01    1.0122891406e+05
    1.1833984405e-01    1.0122891406e+05
    1.1834995449e-01    1.0122890625e+05
    1.1835977435e-01    1.0122889844e+05
    1.1836988479e-01    1.0122889844e+05
    1.1837970465e-01    1.0122888281e+05
    1.1838981509e-01    1.0122887500e+05
    1.1839993298e-01    1.0122886719e+05
    1.1840974540e-01    1.0122886719e+05
    1.1841986328e-01    1.0122885156e+05
    1.1842997372e-01    1.0122885156e+05
    1.1843979359e-01    1.0122884375e+05
    1.1844990402e-01    1.0122883594e+05
    1.1845972389e-01    1.0122883594e+05
    1.1846983433e-01    1.0122882031e+05
    1.1847995222e-01    1.0122880469e+05
    1.1848976463e-01    1.0122878906e+05
    1.1849988252e-01    1.0122878906e+05
    1.1850999296e-01    1.0122878125e+05
    1.1851981282e-01    1.0122878125e+05
    1.1852992326e-01    1.0122877344e+05
    1.1853974313e-01    1.0122877344e+05
    1.1854985356e-01    1.0122877344e+05
    1.1855996400e-01    1.0122875781e+05
    1.1856978387e-01    1.0122875000e+05
    1.1857989430e-01    1.0122875000e+05
    1.1858971417e-01    1.0122874219e+05
    1.1859982461e-01    1.0122872656e+05
    1.1860994250e-01    1.0122872656e+05
    1.1861975491e-01    1.0122871875e+05
    1.1862987280e-01    1.0122871094e+05
    1.1863998324e-01    1.0122871094e+05
    1.1864980310e-01    1.0122869531e+05
    1.1865991354e-01    1.0122868750e+05
    1.1866973341e-01    1.0122867969e+05
    1.1867984384e-01    1.0122866406e+05
    1.1868996173e-01    1.0122865625e+05
    1.1869977415e-01    1.0122864844e+05
    1.1870989203e-01    1.0122863281e+05
    1.1871970445e-01    1.0122862500e+05
    1.1872982234e-01    1.0122860156e+05
    1.1873993278e-01    1.0122859375e+05
    1.1874975264e-01    1.0122858594e+05
    1.1875986308e-01    1.0122857031e+05
    1.1876998097e-01    1.0122856250e+05
    1.1877979338e-01    1.0122853906e+05
    1.1878991127e-01    1.0122853906e+05
    1.1879972368e-01    1.0122853125e+05
    1.1880984157e-01    1.0122852344e+05
    1.1881995201e-01    1.0122852344e+05
    1.1882977188e-01    1.0122852344e+05
    1.1883988231e-01    1.0122852344e+05
    1.1885000020e-01    1.0122850781e+05
    1.1885981262e-01    1.0122850781e+05
    1.1886993051e-01    1.0122850781e+05
    1.1887974292e-01    1.0122850000e+05
    1.1888986081e-01    1.0122850000e+05
    1.1889997125e-01    1.0122849219e+05
    1.1890979111e-01    1.0122847656e+05
    1.1891990155e-01    1.0122847656e+05
    1.1892972142e-01    1.0122847656e+05
    1.1893983185e-01    1.0122846875e+05
    1.1894994229e-01    1.0122846094e+05
    1.1895976216e-01    1.0122846094e+05
    1.1896987259e-01    1.0122846094e+05
    1.1897999048e-01    1.0122846094e+05
    1.1898980290e-01    1.0122846094e+05
    1.1899992079e-01    1.0122844531e+05
    1.1900973320e-01    1.0122844531e+05
    1.1901985109e-01    1.0122844531e+05
    1.1902996153e-01    1.0122843750e+05
    1.1903978139e-01    1.0122842969e+05
    1.1904989183e-01    1.0122841406e+05
    1.1905971169e-01    1.0122840625e+05
    1.1906982213e-01    1.0122839844e+05
    1.1907994002e-01    1.0122837500e+05
    1.1908975244e-01    1.0122835156e+05
    1.1909987032e-01    1.0122835156e+05
    1.1910998076e-01    1.0122834375e+05
    1.1911980063e-01    1.0122833594e+05
    1.1912991107e-01    1.0122834375e+05
    1.1913973093e-01    1.0122834375e+05
    1.1914984137e-01    1.0122835156e+05
    1.1915995926e-01    1.0122835156e+05
    1.1916977167e-01    1.0122835156e+05
    1.1917988956e-01    1.0122835156e+05
    1.1918970197e-01    1.0122834375e+05
    1.1919981986e-01    1.0122833594e+05
    1.1920993030e-01    1.0122832031e+05
    1.1921975017e-01    1.0122830469e+05
    1.1922986060e-01    1.0122828906e+05
    1.1923997849e-01    1.0122827344e+05
    1.1924979091e-01    1.0122825781e+05
    1.1925990880e-01    1.0122825000e+05
    1.1926972121e-01    1.0122824219e+05
    1.1927983910e-01    1.0122824219e+05
    1.1928994954e-01    1.0122822656e+05
    1.1929976940e-01    1.0122822656e+05
    1.1930987984e-01    1.0122821875e+05
    1.1931999773e-01    1.0122821094e+05
    1.1932981014e-01    1.0122821094e+05
    1.1933992058e-01    1.0122819531e+05
    1.1934974045e-01    1.0122817969e+05
    1.1935985088e-01    1.0122816406e+05
    1.1936996877e-01    1.0122816406e+05
    1.1937978119e-01    1.0122816406e+05
    1.1938989908e-01    1.0122816406e+05
    1.1939971149e-01    1.0122816406e+05
    1.1940982938e-01    1.0122816406e+05
    1.1941993982e-01    1.0122816406e+05
    1.1942975968e-01    1.0122816406e+05
    1.1943987012e-01    1.0122816406e+05
    1.1944998801e-01    1.0122815625e+05
    1.1945980042e-01    1.0122815625e+05
    1.1946991831e-01    1.0122814844e+05
    1.1947973073e-01    1.0122814844e+05
    1.1948984861e-01    1.0122812500e+05
    1.1949995905e-01    1.0122810156e+05
    1.1950977892e-01    1.0122809375e+05
    1.1951988935e-01    1.0122807031e+05
    1.1952970922e-01    1.0122805469e+05
    1.1953981966e-01    1.0122803906e+05
    1.1954993755e-01    1.0122802344e+05
    1.1955974996e-01    1.0122800000e+05
    1.1956986785e-01    1.0122799219e+05
    1.1957997829e-01    1.0122797656e+05
    1.1958979815e-01    1.0122796875e+05
    1.1959990859e-01    1.0122796094e+05
    1.1960972846e-01    1.0122796094e+05
    1.1961983889e-01    1.0122793750e+05
    1.1962995678e-01    1.0122792969e+05
    1.1963976920e-01    1.0122792969e+05
    1.1964988708e-01    1.0122791406e+05
    1.1965999752e-01    1.0122791406e+05
    1.1966981739e-01    1.0122791406e+05
    1.1967992783e-01    1.0122792969e+05
    1.1968974769e-01    1.0122792969e+05
    1.1969985813e-01    1.0122793750e+05
    1.1970997602e-01    1.0122793750e+05
    1.1971978843e-01    1.0122793750e+05
    1.1972990632e-01    1.0122793750e+05
    1.1973971874e-01    1.0122792969e+05
    1.1974983662e-01    1.0122791406e+05
    1.1975994706e-01    1.0122790625e+05
    1.1976976693e-01    1.0122789844e+05
    1.1977987736e-01    1.0122787500e+05
    1.1978998780e-01    1.0122785156e+05
    1.1979980767e-01    1.0122784375e+05
    1.1980991811e-01    1.0122783594e+05
    1.1981973797e-01    1.0122781250e+05
    1.1982984841e-01    1.0122778906e+05
    1.1983996630e-01    1.0122778906e+05
    1.1984977871e-01    1.0122778125e+05
    1.1985989660e-01    1.0122778125e+05
    1.1986970901e-01    1.0122778125e+05
    1.1987982690e-01    1.0122778125e+05
    1.1988993734e-01    1.0122778125e+05
    1.1989975721e-01    1.0122778125e+05
    1.1990986764e-01    1.0122778906e+05
    1.1991998553e-01    1.0122778906e+05
    1.1992979795e-01    1.0122778125e+05
    1.1993991584e-01    1.0122778125e+05
    1.1994972825e-01    1.0122778125e+05
    1.1995984614e-01    1.0122777344e+05
    1.1996995658e-01    1.0122775781e+05
    1.1997977644e-01    1.0122775000e+05
    1.1998988688e-01    1.0122772656e+05
    1.1999970675e-01    1.0122771875e+05
endcurve
