Curveplot
LS-DYNA keyword deck by LS-PrePost                          
Time
Pressure
Defined Connection
Pressure @ 53 #pts=14001
* Minval=     9.6141460938e+04 at time=         0.0818698704
* Maxval=     1.1464255469e+05 at time=         0.0605797768
    0.0000000000e+00    1.0120000000e+05
    9.9483813756e-06    1.0120000000e+05
    1.9897128368e-05    1.0120000000e+05
    2.9971904951e-05    1.0120000000e+05
    3.9974849642e-05    1.0120000000e+05
    4.9979065807e-05    1.0120000000e+05
    5.9957161284e-05    1.0120000000e+05
    6.9962043199e-05    1.0120000000e+05
    7.9996607383e-05    1.0120000000e+05
    8.9946603111e-05    1.0120000000e+05
    9.9955410406e-05    1.0120000000e+05
    1.0995904449e-04    1.0120000000e+05
    1.1994769011e-04    1.0120000000e+05
    1.2997900194e-04    1.0120000000e+05
    1.3997641508e-04    1.0120000000e+05
    1.4993009972e-04    1.0120000000e+05
    1.5998019080e-04    1.0120000000e+05
    1.6997329658e-04    1.0120000000e+05
    1.7997648683e-04    1.0120000000e+05
    1.8998372252e-04    1.0120000000e+05
    1.9998877542e-04    1.0120000000e+05
    2.0998524269e-04    1.0120000000e+05
    2.1996672149e-04    1.0120000000e+05
    2.2992666345e-04    1.0120000000e+05
    2.3994252842e-04    1.0120000000e+05
    2.4992605904e-04    1.0120000000e+05
    2.5995710166e-04    1.0120000000e+05
    2.6994489599e-04    1.0120000000e+05
    2.7997125289e-04    1.0120000000e+05
    2.8994306922e-04    1.0120000000e+05
    2.9994425131e-04    1.0120000000e+05
    3.0997116119e-04    1.0120000000e+05
    3.1992714503e-04    1.0120000000e+05
    3.2999261748e-04    1.0120000000e+05
    3.3997549326e-04    1.0120000000e+05
    3.4995833994e-04    1.0120000000e+05
    3.5993222264e-04    1.0120000000e+05
    3.6999228178e-04    1.0120000000e+05
    3.7994366721e-04    1.0120000000e+05
    3.8997971569e-04    1.0120000000e+05
    3.9990196819e-04    1.0120000000e+05
    4.0990707930e-04    1.0120000000e+05
    4.1999592213e-04    1.0120000000e+05
    4.2996509001e-04    1.0120000000e+05
    4.3991327402e-04    1.0120000000e+05
    4.4994280324e-04    1.0120000000e+05
    4.5994998072e-04    1.0120000000e+05
    4.6993308933e-04    1.0120000000e+05
    4.7999690287e-04    1.0120000000e+05
    4.8992806114e-04    1.0120000000e+05
    4.9993844004e-04    1.0120000000e+05
    5.0992018078e-04    1.0120000000e+05
    5.1998149138e-04    1.0120000000e+05
    5.2990199765e-04    1.0120000000e+05
    5.3990050219e-04    1.0120000000e+05
    5.4997799452e-04    1.0120000000e+05
    5.5990886176e-04    1.0120000000e+05
    5.6991714519e-04    1.0120000000e+05
    5.7988852495e-04    1.0120000000e+05
    5.8993720450e-04    1.0120000000e+05
    5.9994729236e-04    1.0120000000e+05
    6.0991710052e-04    1.0120000000e+05
    6.1996350996e-04    1.0120000000e+05
    6.2996789347e-04    1.0120000000e+05
    6.3992856303e-04    1.0120000000e+05
    6.4996507717e-04    1.0120000000e+05
    6.5995607292e-04    1.0120000000e+05
    6.6989974584e-04    1.0120000000e+05
    6.7991844844e-04    1.0120000000e+05
    6.8988802377e-04    1.0120000000e+05
    6.9993268698e-04    1.0120000000e+05
    7.0992641849e-04    1.0120000000e+05
    7.1999535430e-04    1.0120000000e+05
    7.2988256579e-04    1.0120000000e+05
    7.3997280560e-04    1.0120000000e+05
    7.4987759581e-04    1.0120000000e+05
    7.5998733519e-04    1.0120000000e+05
    7.6990760863e-04    1.0120000000e+05
    7.7990104910e-04    1.0120000000e+05
    7.8996847151e-04    1.0120000000e+05
    7.9997524153e-04    1.0120000000e+05
    8.0991914729e-04    1.0120000000e+05
    8.1993587082e-04    1.0120000000e+05
    8.2988763461e-04    1.0120000000e+05
    8.3991198335e-04    1.0120000000e+05
    8.4986910224e-04    1.0120000000e+05
    8.5989863146e-04    1.0120000000e+05
    8.6985860253e-04    1.0120000000e+05
    8.7989063468e-04    1.0120000000e+05
    8.8999571744e-04    1.0120000000e+05
    8.9988269610e-04    1.0120000000e+05
    9.0998725500e-04    1.0120000000e+05
    9.1986916959e-04    1.0120000000e+05
    9.2997029424e-04    1.0120000000e+05
    9.3999435194e-04    1.0120000000e+05
    9.4993889797e-04    1.0120000000e+05
    9.5995399170e-04    1.0120000000e+05
    9.6988695441e-04    1.0120000000e+05
    9.7988988273e-04    1.0120000000e+05
    9.8996353336e-04    1.0120000000e+05
    9.9995220080e-04    1.0120000000e+05
    1.0098530911e-03    1.0120000000e+05
    1.0199816898e-03    1.0120000000e+05
    1.0298622074e-03    1.0120000000e+05
    1.0399717139e-03    1.0120000000e+05
    1.0499901837e-03    1.0120000000e+05
    1.0599150555e-03    1.0120000000e+05
    1.0699077975e-03    1.0120000000e+05
    1.0799694574e-03    1.0120000000e+05
    1.0899340268e-03    1.0120000000e+05
    1.0999665828e-03    1.0120000000e+05
    1.1098989053e-03    1.0120000000e+05
    1.1198985158e-03    1.0120000000e+05
    1.1299658800e-03    1.0120000000e+05
    1.1399295181e-03    1.0120000000e+05
    1.1499599786e-03    1.0120000000e+05
    1.1598834535e-03    1.0120000000e+05
    1.1698728194e-03    1.0120000000e+05
    1.1799287749e-03    1.0120000000e+05
    1.1898739031e-03    1.0120000000e+05
    1.1998844566e-03    1.0120000000e+05
    1.2099613668e-03    1.0120000000e+05
    1.2199233752e-03    1.0120000000e+05
    1.2299506925e-03    1.0120000000e+05
    1.2398598483e-03    1.0120000000e+05
    1.2498332653e-03    1.0120000000e+05
    1.2598715257e-03    1.0120000000e+05
    1.2699754443e-03    1.0120000000e+05
    1.2799566612e-03    1.0120000000e+05
    1.2898122659e-03    1.0120000000e+05
    1.2999221217e-03    1.0120000000e+05
    1.3099050848e-03    1.0120000000e+05
    1.3199521927e-03    1.0120000000e+05
    1.3298690319e-03    1.0120000000e+05
    1.3398489682e-03    1.0120000000e+05
    1.3498923508e-03    1.0120000000e+05
    1.3598013902e-03    1.0120000000e+05
    1.3699728297e-03    1.0120000000e+05
    1.3798073633e-03    1.0120000000e+05
    1.3899059268e-03    1.0120000000e+05
    1.3998651411e-03    1.0120000000e+05
    1.4098869869e-03    1.0120000000e+05
    1.4199722791e-03    1.0120000000e+05
    1.4299136819e-03    1.0120000000e+05
    1.4399174834e-03    1.0120000000e+05
    1.4499842655e-03    1.0120000000e+05
    1.4599027345e-03    1.0120000000e+05
    1.4698830200e-03    1.0120000000e+05
    1.4799255878e-03    1.0120000000e+05
    1.4898157679e-03    1.0120000000e+05
    1.4999837149e-03    1.0120000000e+05
    1.5099979937e-03    1.0120000000e+05
    1.5198551118e-03    1.0120000000e+05
    1.5299938386e-03    1.0120000000e+05
    1.5399741242e-03    1.0120000000e+05
    1.5497925924e-03    1.0120000000e+05
    1.5598962782e-03    1.0120000000e+05
    1.5698365169e-03    1.0120000000e+05
    1.5798379900e-03    1.0120000000e+05
    1.5899022110e-03    1.0120000000e+05
    1.5997973969e-03    1.0120000000e+05
    1.6099864151e-03    1.0120000000e+05
    1.6197721707e-03    1.0120000000e+05
    1.6298514092e-03    1.0120000000e+05
    1.6399938613e-03    1.0120000000e+05
    1.6499625053e-03    1.0120000000e+05
    1.6599928495e-03    1.0120000000e+05
    1.6698442632e-03    1.0120000000e+05
    1.6799978912e-03    1.0120000000e+05
    1.6899706097e-03    1.0120000000e+05
    1.6997598577e-03    1.0120000000e+05
    1.7098565586e-03    1.0120000000e+05
    1.7197664129e-03    1.0120000000e+05
    1.7299880274e-03    1.0120000000e+05
    1.7397701740e-03    1.0120000000e+05
    1.7498655943e-03    1.0120000000e+05
    1.7597686965e-03    1.0120000000e+05
    1.7699886812e-03    1.0120000000e+05
    1.7797580222e-03    1.0120000000e+05
    1.7898457590e-03    1.0120000000e+05
    1.7999965930e-03    1.0120000000e+05
    1.8099484732e-03    1.0120000000e+05
    1.8199618207e-03    1.0120000000e+05
    1.8297715578e-03    1.0120000000e+05
    1.8399086548e-03    1.0120000000e+05
    1.8498400459e-03    1.0120000000e+05
    1.8598327879e-03    1.0120000000e+05
    1.8698878121e-03    1.0120000000e+05
    1.8797310768e-03    1.0120000000e+05
    1.8899110146e-03    1.0120000000e+05
    1.8998777959e-03    1.0120000000e+05
    1.9099062774e-03    1.0120000000e+05
    1.9199976232e-03    1.0120000000e+05
    1.9298698753e-03    1.0120000000e+05
    1.9398030126e-03    1.0120000000e+05
    1.9497978501e-03    1.0120000000e+05
    1.9598552026e-03    1.0120000000e+05
    1.9699761178e-03    1.0120000000e+05
    1.9798695575e-03    1.0120000000e+05
    1.9898246974e-03    1.0120000000e+05
    1.9998420030e-03    1.0120000000e+05
    2.0099224057e-03    1.0120000000e+05
    2.0197678823e-03    1.0120000000e+05
    2.0299756434e-03    1.0120000000e+05
    2.0399466157e-03    1.0120000000e+05
    2.0499802195e-03    1.0120000000e+05
    2.0597707480e-03    1.0120000000e+05
    2.0699314773e-03    1.0120000000e+05
    2.0798468031e-03    1.0120000000e+05
    2.0898247603e-03    1.0120000000e+05
    2.0998665132e-03    1.0120000000e+05
    2.1099725273e-03    1.0120000000e+05
    2.1198254544e-03    1.0120000000e+05
    2.1297405474e-03    1.0120000000e+05
    2.1397187375e-03    1.0120000000e+05
    2.1497611888e-03    1.0120000000e+05
    2.1598688327e-03    1.0120000000e+05
    2.1697133780e-03    1.0120000000e+05
    2.1799518727e-03    1.0120000000e+05
    2.1899251733e-03    1.0120000000e+05
    2.1999629680e-03    1.0120000000e+05
    2.2097288165e-03    1.0120000000e+05
    2.2198969964e-03    1.0120000000e+05
    2.2297904361e-03    1.0120000000e+05
    2.2397481371e-03    1.0120000000e+05
    2.2497712635e-03    1.0120000000e+05
    2.2598605137e-03    1.0120000000e+05
    2.2696659435e-03    1.0120000000e+05
    2.2798883729e-03    1.0120000000e+05
    2.2898244206e-03    1.0120000000e+05
    2.2998261265e-03    1.0120000000e+05
    2.3098948877e-03    1.0120000000e+05
    2.3196681868e-03    1.0120000000e+05
    2.3298708256e-03    1.0120000000e+05
    2.3397759069e-03    1.0120000000e+05
    2.3497471120e-03    1.0120000000e+05
    2.3597853724e-03    1.0120000000e+05
    2.3698923178e-03    1.0120000000e+05
    2.3796905298e-03    1.0120000000e+05
    2.3899348453e-03    1.0120000000e+05
    2.3998678662e-03    1.0120000000e+05
    2.4098686408e-03    1.0120000000e+05
    2.4199383333e-03    1.0120000000e+05
    2.4296867196e-03    1.0120000000e+05
    2.4398951791e-03    1.0120000000e+05
    2.4497790728e-03    1.0120000000e+05
    2.4597314186e-03    1.0120000000e+05
    2.4697529152e-03    1.0120000000e+05
    2.4798449595e-03    1.0120000000e+05
    2.4896012619e-03    1.0120000000e+05
    2.4998353329e-03    1.0120000000e+05
    2.5097301695e-03    1.0120000000e+05
    2.5196948554e-03    1.0120000000e+05
    2.5297303218e-03    1.0120000000e+05
    2.5398384314e-03    1.0120000000e+05
    2.5495942682e-03    1.0120000000e+05
    2.5598476641e-03    1.0120000000e+05
    2.5697457604e-03    1.0120000000e+05
    2.5797097478e-03    1.0120000000e+05
    2.5897161104e-03    1.0120000000e+05
    2.5997608900e-03    1.0120000000e+05
    2.6098424569e-03    1.0120000000e+05
    2.6199531276e-03    1.0120000000e+05
    2.6296467986e-03    1.0120000000e+05
    2.6397891343e-03    1.0120000000e+05
    2.6499528904e-03    1.0120000000e+05
    2.6596998796e-03    1.0120000000e+05
    2.6699022856e-03    1.0120000000e+05
    2.6796474122e-03    1.0120000000e+05
    2.6898707729e-03    1.0120000000e+05
    2.6996196248e-03    1.0120000000e+05
    2.7098404244e-03    1.0120000000e+05
    2.7195862494e-03    1.0120000000e+05
    2.7297940105e-03    1.0120000000e+05
    2.7399864048e-03    1.0120000000e+05
    2.7497548144e-03    1.0120000000e+05
    2.7599453460e-03    1.0120000000e+05
    2.7697086334e-03    1.0120000000e+05
    2.7798803058e-03    1.0120000000e+05
    2.7896366082e-03    1.0120000000e+05
    2.7998059522e-03    1.0120000000e+05
    2.8099718038e-03    1.0120000000e+05
    2.8197104111e-03    1.0120000000e+05
    2.8298813850e-03    1.0120000000e+05
    2.8396297712e-03    1.0120000000e+05
    2.8497399762e-03    1.0120000000e+05
    2.8599081561e-03    1.0120000000e+05
    2.8696376830e-03    1.0120000000e+05
    2.8797828127e-03    1.0120000000e+05
    2.8899200261e-03    1.0120000000e+05
    2.8996199835e-03    1.0120000000e+05
    2.9098428786e-03    1.0120000000e+05
    2.9196355026e-03    1.0120000000e+05
    2.9298500158e-03    1.0120000000e+05
    2.9396261089e-03    1.0120000000e+05
    2.9498930089e-03    1.0120000000e+05
    2.9597384855e-03    1.0120000000e+05
    2.9695830308e-03    1.0120000000e+05
    2.9798839241e-03    1.0120000000e+05
    2.9897536151e-03    1.0120000000e+05
    2.9996496160e-03    1.0120000000e+05
    3.0099872965e-03    1.0120000000e+05
    3.0198928434e-03    1.0120000000e+05
    3.0298063066e-03    1.0120000000e+05
    3.0397232622e-03    1.0120000000e+05
    3.0496474355e-03    1.0120000000e+05
    3.0595730059e-03    1.0120000000e+05
    3.0699169729e-03    1.0120000000e+05
    3.0798150692e-03    1.0120000000e+05
    3.0897092074e-03    1.0120000000e+05
    3.0995714478e-03    1.0120000000e+05
    3.1098509207e-03    1.0120000000e+05
    3.1196686905e-03    1.0120000000e+05
    3.1298943795e-03    1.0120000000e+05
    3.1396432314e-03    1.0120000000e+05
    3.1497881282e-03    1.0120000000e+05
    3.1598831993e-03    1.0120000000e+05
    3.1699182000e-03    1.0120000000e+05
    3.1798928976e-03    1.0120000000e+05
    3.1898091547e-03    1.0120000000e+05
    3.1996672042e-03    1.0120000000e+05
    3.2098924275e-03    1.0120000000e+05
    3.2196333632e-03    1.0120000000e+05
    3.2297382131e-03    1.0120000000e+05
    3.2397825271e-03    1.0120000000e+05
    3.2497674692e-03    1.0120000000e+05
    3.2596928068e-03    1.0120000000e+05
    3.2699701842e-03    1.0120000000e+05
    3.2797770109e-03    1.0120000000e+05
    3.2899321523e-03    1.0120000000e+05
    3.2996232621e-03    1.0120000000e+05
    3.3096587285e-03    1.0120000000e+05
    3.3196341246e-03    1.0120000000e+05
    3.3299454954e-03    1.0120000000e+05
    3.3398005180e-03    1.0120000000e+05
    3.3499877900e-03    1.0120000000e+05
    3.3597245347e-03    1.0120000000e+05
    3.3697900362e-03    1.0120000000e+05
    3.3797947690e-03    1.0120000000e+05
    3.3897385001e-03    1.0120000000e+05
    3.3996223938e-03    1.0120000000e+05
    3.4098234028e-03    1.0120000000e+05
    3.4199608490e-03    1.0120000000e+05
    3.4296633676e-03    1.0120000000e+05
    3.4396776464e-03    1.0120000000e+05
    3.4499973990e-03    1.0120000000e+05
    3.4598861821e-03    1.0120000000e+05
    3.4697139636e-03    1.0120000000e+05
    3.4798418637e-03    1.0120000000e+05
    3.4899052698e-03    1.0120000000e+05
    3.4999046475e-03    1.0120000000e+05
    3.5098404624e-03    1.0120000000e+05
    3.5197131801e-03    1.0120000000e+05
    3.5298727453e-03    1.0120000000e+05
    3.5399652552e-03    1.0120000000e+05
    3.5499916412e-03    1.0120000000e+05
    3.5599521361e-03    1.0120000000e+05
    3.5698472057e-03    1.0120000000e+05
    3.5796770826e-03    1.0120000000e+05
    3.5897782072e-03    1.0120000000e+05
    3.5998104140e-03    1.0120000000e+05
    3.6097741686e-03    1.0120000000e+05
    3.6199984606e-03    1.0120000000e+05
    3.6298241466e-03    1.0120000000e+05
    3.6399066448e-03    1.0120000000e+05
    3.6499176640e-03    1.0120000000e+05
    3.6598572042e-03    1.0120000000e+05
    3.6697259638e-03    1.0120000000e+05
    3.6798387300e-03    1.0120000000e+05
    3.6898767576e-03    1.0120000000e+05
    3.6998398136e-03    1.0120000000e+05
    3.7097283639e-03    1.0120000000e+05
    3.7198481150e-03    1.0120000000e+05
    3.7298891693e-03    1.0120000000e+05
    3.7398517597e-03    1.0120000000e+05
    3.7497356534e-03    1.0120000000e+05
    3.7598374765e-03    1.0120000000e+05
    3.7698561791e-03    1.0120000000e+05
    3.7797919940e-03    1.0120000000e+05
    3.7899338640e-03    1.0120000000e+05
    3.7999879569e-03    1.0120000000e+05
    3.8099545054e-03    1.0120000000e+05
    3.8198332768e-03    1.0120000000e+05
    3.8299029693e-03    1.0120000000e+05
    3.8398797624e-03    1.0120000000e+05
    3.8497634232e-03    1.0120000000e+05
    3.8598249666e-03    1.0120000000e+05
    3.8697877899e-03    1.0120000000e+05
    3.8799168542e-03    1.0120000000e+05
    3.8899413776e-03    1.0120000000e+05
    3.8998608943e-03    1.0120000000e+05
    3.9099319838e-03    1.0120000000e+05
    3.9198915474e-03    1.0120000000e+05
    3.9299898781e-03    1.0120000000e+05
    3.9399689995e-03    1.0120000000e+05
    3.9498289116e-03    1.0120000000e+05
    3.9598098956e-03    1.0120000000e+05
    3.9699021727e-03    1.0120000000e+05
    3.9798589423e-03    1.0120000000e+05
    3.9899116382e-03    1.0120000000e+05
    3.9998185821e-03    1.0120000000e+05
    4.0098042227e-03    1.0120000000e+05
    4.0198555216e-03    1.0120000000e+05
    4.0299589746e-03    1.0120000000e+05
    4.0398864076e-03    1.0120000000e+05
    4.0498445742e-03    1.0120000000e+05
    4.0598167107e-03    1.0120000000e+05
    4.0699872188e-03    1.0120000000e+05
    4.0799309500e-03    1.0120000000e+05
    4.0898318402e-03    1.0120000000e+05
    4.0998547338e-03    1.0120000000e+05
    4.1099577211e-03    1.0120000000e+05
    4.1199186817e-03    1.0120000000e+05
    4.1298717260e-03    1.0120000000e+05
    4.1399169713e-03    1.0120000000e+05
    4.1499566287e-03    1.0120000000e+05
    4.1598705575e-03    1.0120000000e+05
    4.1698976420e-03    1.0120000000e+05
    4.1799237952e-03    1.0120000000e+05
    4.1899918579e-03    1.0120000000e+05
    4.1999872774e-03    1.0120000000e+05
    4.2099663988e-03    1.0120000000e+05
    4.2199138552e-03    1.0120000000e+05
    4.2298785411e-03    1.0120000000e+05
    4.2398627847e-03    1.0120000000e+05
    4.2499494739e-03    1.0120000000e+05
    4.2599453591e-03    1.0120000000e+05
    4.2699933983e-03    1.0120000000e+05
    4.2799976654e-03    1.0120000000e+05
    4.2899665423e-03    1.0120000000e+05
    4.2999004945e-03    1.0120000000e+05
    4.3099657632e-03    1.0120000000e+05
    4.3198461644e-03    1.0120000000e+05
    4.3299579993e-03    1.0120000000e+05
    4.3398481794e-03    1.0120000000e+05
    4.3498282321e-03    1.0120000000e+05
    4.3599093333e-03    1.0120000000e+05
    4.3698847294e-03    1.0120000000e+05
    4.3799462728e-03    1.0120000000e+05
    4.3898951262e-03    1.0120000000e+05
    4.3999198824e-03    1.0120000000e+05
    4.4098151848e-03    1.0120000000e+05
    4.4199824333e-03    1.0120000000e+05
    4.4299922884e-03    1.0120000000e+05
    4.4399038889e-03    1.0120000000e+05
    4.4498448260e-03    1.0120000000e+05
    4.4598514214e-03    1.0120000000e+05
    4.4699008577e-03    1.0120000000e+05
    4.4798310846e-03    1.0120000000e+05
    4.4899643399e-03    1.0120000000e+05
    4.4999881648e-03    1.0120000000e+05
    4.5098322444e-03    1.0120000000e+05
    4.5199473388e-03    1.0120000000e+05
    4.5298789628e-03    1.0120000000e+05
    4.5398608781e-03    1.0120000000e+05
    4.5498851687e-03    1.0120000000e+05
    4.5599499717e-03    1.0120000000e+05
    4.5698625036e-03    1.0120000000e+05
    4.5799957588e-03    1.0120000000e+05
    4.5899925753e-03    1.0120000000e+05
    4.5999856666e-03    1.0120000000e+05
    4.6098567545e-03    1.0120000000e+05
    4.6199173667e-03    1.0120000000e+05
    4.6298615634e-03    1.0120000000e+05
    4.6397922561e-03    1.0120000000e+05
    4.6499934979e-03    1.0120000000e+05
    4.6598138288e-03    1.0120000000e+05
    4.6698390506e-03    1.0120000000e+05
    4.6799662523e-03    1.0120000000e+05
    4.6898233704e-03    1.0120000000e+05
    4.6998071484e-03    1.0120000000e+05
    4.7099515796e-03    1.0120000000e+05
    4.7199637629e-03    1.0120000000e+05
    4.7299922444e-03    1.0120000000e+05
    4.7398260795e-03    1.0120000000e+05
    4.7499430366e-03    1.0120000000e+05
    4.7598332167e-03    1.0120000000e+05
    4.7697881237e-03    1.0120000000e+05
    4.7799786553e-03    1.0120000000e+05
    4.7899740748e-03    1.0120000000e+05
    4.7998060472e-03    1.0120000000e+05
    4.8098592088e-03    1.0120000000e+05
    4.8199649900e-03    1.0120000000e+05
    4.8298616894e-03    1.0120000000e+05
    4.8398026265e-03    1.0120000000e+05
    4.8499777913e-03    1.0120000000e+05
    4.8599699512e-03    1.0120000000e+05
    4.8699877225e-03    1.0120000000e+05
    4.8797968775e-03    1.0120000000e+05
    4.8898672685e-03    1.0120000000e+05
    4.8999539576e-03    1.0120000000e+05
    4.9098408781e-03    1.0120000000e+05
    4.9199755304e-03    1.0120000000e+05
    4.9299122766e-03    1.0120000000e+05
    4.9398657866e-03    1.0120000000e+05
    4.9498341978e-03    1.0120000000e+05
    4.9598375335e-03    1.0120000000e+05
    4.9698534422e-03    1.0120000000e+05
    4.9798800610e-03    1.0120000000e+05
    4.9899439327e-03    1.0120000000e+05
    4.9997880124e-03    1.0120000000e+05
    5.0098719075e-03    1.0120000000e+05
    5.0199860707e-03    1.0120000000e+05
    5.0298823044e-03    1.0120000000e+05
    5.0397873856e-03    1.0120000000e+05
    5.0499481149e-03    1.0120000000e+05
    5.0598918460e-03    1.0120000000e+05
    5.0698434934e-03    1.0120000000e+05
    5.0798133016e-03    1.0120000000e+05
    5.0897998735e-03    1.0120000000e+05
    5.0997929648e-03    1.0120000000e+05
    5.1097972319e-03    1.0120000000e+05
    5.1198205911e-03    1.0120000000e+05
    5.1298504695e-03    1.0120000000e+05
    5.1398873329e-03    1.0120000000e+05
    5.1499358378e-03    1.0120000000e+05
    5.1599964499e-03    1.0120000000e+05
    5.1698256284e-03    1.0120000000e+05
    5.1798964851e-03    1.0120000000e+05
    5.1899752580e-03    1.0120000000e+05
    5.1998216659e-03    1.0120000000e+05
    5.2099060267e-03    1.0120000000e+05
    5.2199922502e-03    1.0120000000e+05
    5.2298442461e-03    1.0120000000e+05
    5.2399309352e-03    1.0120000000e+05
    5.2497838624e-03    1.0120000000e+05
    5.2598714828e-03    1.0120000000e+05
    5.2699595690e-03    1.0120000000e+05
    5.2798134275e-03    1.0120000000e+05
    5.2899019793e-03    1.0120000000e+05
    5.2999905311e-03    1.0120000000e+05
    5.3098439239e-03    1.0120000000e+05
    5.3199324757e-03    1.0120000000e+05
    5.3297854029e-03    1.0120000000e+05
    5.3398730233e-03    1.0120000000e+05
    5.3499606438e-03    1.0120000000e+05
    5.3598126397e-03    1.0120000000e+05
    5.3698993288e-03    1.0120000000e+05
    5.3799850866e-03    1.0120000000e+05
    5.3898361512e-03    1.0120000000e+05
    5.3999214433e-03    1.0120000000e+05
    5.4097711109e-03    1.0120000000e+05
    5.4198550060e-03    1.0120000000e+05
    5.4299384356e-03    1.0120000000e+05
    5.4397867061e-03    1.0120000000e+05
    5.4498687387e-03    1.0120000000e+05
    5.4599503055e-03    1.0120000000e+05
    5.4697971791e-03    1.0120000000e+05
    5.4798768833e-03    1.0120000000e+05
    5.4899551906e-03    1.0120000000e+05
    5.4997988045e-03    1.0120000000e+05
    5.5098780431e-03    1.0120000000e+05
    5.5199535564e-03    1.0120000000e+05
    5.5297929794e-03    1.0120000000e+05
    5.5398787372e-03    1.0120000000e+05
    5.5499537848e-03    1.0120000000e+05
    5.5597932078e-03    1.0120000000e+05
    5.5698868819e-03    1.0120000000e+05
    5.5799824186e-03    1.0120000000e+05
    5.5898348801e-03    1.0120000000e+05
    5.5999415927e-03    1.0120000000e+05
    5.6098313071e-03    1.0120000000e+05
    5.6199431419e-03    1.0120000000e+05
    5.6298300624e-03    1.0120000000e+05
    5.6399810128e-03    1.0120000000e+05
    5.6498893537e-03    1.0120000000e+05
    5.6597958319e-03    1.0120000000e+05
    5.6699640118e-03    1.0120000000e+05
    5.6799058802e-03    1.0120000000e+05
    5.6898412295e-03    1.0120000000e+05
    5.6997896172e-03    1.0120000000e+05
    5.7099927217e-03    1.0120000000e+05
    5.7199592702e-03    1.0120000000e+05
    5.7299309410e-03    1.0120000000e+05
    5.7399170473e-03    1.0120000000e+05
    5.7499101385e-03    1.0120000000e+05
    5.7599069551e-03    1.0120000000e+05
    5.7699144818e-03    1.0120000000e+05
    5.7799308561e-03    1.0120000000e+05
    5.7899518870e-03    1.0120000000e+05
    5.7999808341e-03    1.0120000000e+05
    5.8097802103e-03    1.0120000000e+05
    5.8198226616e-03    1.0120000000e+05
    5.8298711665e-03    1.0120000000e+05
    5.8399303816e-03    1.0120000000e+05
    5.8499961160e-03    1.0120000000e+05
    5.8598262258e-03    1.0120000000e+05
    5.8699022047e-03    1.0120000000e+05
    5.8799893595e-03    1.0120000000e+05
    5.8898422867e-03    1.0120000000e+05
    5.8999401517e-03    1.0120000000e+05
    5.9098033234e-03    1.0120000000e+05
    5.9199151583e-03    1.0120000000e+05
    5.9297922999e-03    1.0120000000e+05
    5.9399129823e-03    1.0120000000e+05
    5.9498003684e-03    1.0120000000e+05
    5.9599350207e-03    1.0120000000e+05
    5.9698368423e-03    1.0120000000e+05
    5.9799849987e-03    1.0120000000e+05
    5.9898965992e-03    1.0120000000e+05
    5.9998142533e-03    1.0120000000e+05
    6.0099819675e-03    1.0120000000e+05
    6.0199112631e-03    1.0120000000e+05
    6.0298424214e-03    1.0120000000e+05
    6.0397819616e-03    1.0120000000e+05
    6.0499701649e-03    1.0120000000e+05
    6.0599218123e-03    1.0120000000e+05
    6.0698757879e-03    1.0120000000e+05
    6.0798376799e-03    1.0120000000e+05
    6.0898060910e-03    1.0120000000e+05
    6.0997782275e-03    1.0120000000e+05
    6.1099976301e-03    1.0120000000e+05
    6.1199758202e-03    1.0120000000e+05
    6.1299623922e-03    1.0120000000e+05
    6.1399526894e-03    1.0120000000e+05
    6.1499481089e-03    1.0120000000e+05
    6.1599449255e-03    1.0120000000e+05
    6.1699501239e-03    1.0120000000e+05
    6.1799613759e-03    1.0120000000e+05
    6.1899758875e-03    1.0120000000e+05
    6.1999955215e-03    1.0120000000e+05
    6.2097725458e-03    1.0120000000e+05
    6.2198033556e-03    1.0120000000e+05
    6.2298327684e-03    1.0120000000e+05
    6.2398682348e-03    1.0120000000e+05
    6.2499078922e-03    1.0120000000e+05
    6.2599526718e-03    1.0120000000e+05
    6.2697590329e-03    1.0120000000e+05
    6.2798075378e-03    1.0120000000e+05
    6.2898662873e-03    1.0120000000e+05
    6.2999255024e-03    1.0120000000e+05
    6.3099940307e-03    1.0120000000e+05
    6.3198152930e-03    1.0120000000e+05
    6.3298842870e-03    1.0120000000e+05
    6.3399621285e-03    1.0120000000e+05
    6.3497936353e-03    1.0120000000e+05
    6.3598803245e-03    1.0120000000e+05
    6.3699604943e-03    1.0120000000e+05
    6.3798073679e-03    1.0120000000e+05
    6.3898996450e-03    1.0120000000e+05
    6.3999975100e-03    1.0120000000e+05
    6.4098504372e-03    1.0120000000e+05
    6.4199501649e-03    1.0120000000e+05
    6.4298165962e-03    1.0120000000e+05
    6.4399219118e-03    1.0120000000e+05
    6.4497911371e-03    1.0120000000e+05
    6.4598978497e-03    1.0120000000e+05
    6.4697749913e-03    1.0120000000e+05
    6.4799087122e-03    1.0120000000e+05
    6.4897947013e-03    1.0120000000e+05
    6.4999251626e-03    1.0120000000e+05
    6.5098009072e-03    1.0120000000e+05
    6.5199350938e-03    1.0120000000e+05
    6.5298294649e-03    1.0120000000e+05
    6.5399771556e-03    1.0120000000e+05
    6.5498757176e-03    1.0120000000e+05
    6.5597724169e-03    1.0120000000e+05
    6.5699149854e-03    1.0120000000e+05
    6.5798079595e-03    1.0120000000e+05
    6.5899468027e-03    1.0120000000e+05
    6.5998435020e-03    1.0120000000e+05
    6.6099977121e-03    1.0120000000e+05
    6.6199037246e-03    1.0120000000e+05
    6.6298064776e-03    1.0120000000e+05
    6.6399550997e-03    1.0120000000e+05
    6.6498555243e-03    1.0120000000e+05
    6.6597550176e-03    1.0120000000e+05
    6.6699008457e-03    1.0120000000e+05
    6.6798008047e-03    1.0120000000e+05
    6.6899517551e-03    1.0120000000e+05
    6.6998605616e-03    1.0120000000e+05
    6.7097716965e-03    1.0120000000e+05
    6.7199296318e-03    1.0120000000e+05
    6.7298384383e-03    1.0120000000e+05
    6.7399935797e-03    1.0120000000e+05
    6.7499000579e-03    1.0120000000e+05
    6.7598060705e-03    1.0120000000e+05
    6.7699598148e-03    1.0120000000e+05
    6.7798662931e-03    1.0120000000e+05
    6.7897737026e-03    1.0120000000e+05
    6.7999279127e-03    1.0120000000e+05
    6.8098348565e-03    1.0120000000e+05
    6.8199890666e-03    1.0120000000e+05
    6.8298950791e-03    1.0120000000e+05
    6.8398010917e-03    1.0120000000e+05
    6.8499543704e-03    1.0120000000e+05
    6.8598599173e-03    1.0120000000e+05
    6.8697649986e-03    1.0120000000e+05
    6.8799173459e-03    1.0120000000e+05
    6.8898219615e-03    1.0120000000e+05
    6.8999738432e-03    1.0120000000e+05
    6.9098779932e-03    1.0120000000e+05
    6.9197816774e-03    1.0120000000e+05
    6.9299326278e-03    1.0120000000e+05
    6.9398358464e-03    1.0120000000e+05
    6.9499858655e-03    1.0120000000e+05
    6.9598886184e-03    1.0120000000e+05
    6.9697909057e-03    1.0120000000e+05
    6.9799409248e-03    1.0120000000e+05
    6.9898446091e-03    1.0120000000e+05
    6.9999969564e-03    1.0120000000e+05
    7.0099029690e-03    1.0120000000e+05
    7.0198085159e-03    1.0120000000e+05
    7.0299599320e-03    1.0120000000e+05
    7.0398622192e-03    1.0120000000e+05
    7.0497640409e-03    1.0120000000e+05
    7.0599131286e-03    1.0120000000e+05
    7.0698135532e-03    1.0120000000e+05
    7.0799631067e-03    1.0120000000e+05
    7.0898681879e-03    1.0120000000e+05
    7.0997760631e-03    1.0120000000e+05
    7.1099316701e-03    1.0120000000e+05
    7.1198390797e-03    1.0120000000e+05
    7.1299928240e-03    1.0120000000e+05
    7.1398983710e-03    1.0120000000e+05
    7.1498034522e-03    1.0120000000e+05
    7.1599548683e-03    1.0120000000e+05
    7.1698590182e-03    1.0120000000e+05
    7.1797668934e-03    1.0120000000e+05
    7.1899266914e-03    1.0120000000e+05
    7.1998368949e-03    1.0120000000e+05
    7.2099938989e-03    1.0120000000e+05
    7.2199022397e-03    1.0120000000e+05
    7.2298096493e-03    1.0120000000e+05
    7.2399671189e-03    1.0120000000e+05
    7.2498815134e-03    1.0120000000e+05
    7.2597963735e-03    1.0120000000e+05
    7.2699575685e-03    1.0120000000e+05
    7.2798705660e-03    1.0120000000e+05
    7.2897821665e-03    1.0120000000e+05
    7.2999428958e-03    1.0120000000e+05
    7.3098600842e-03    1.0120000000e+05
    7.3197777383e-03    1.0120000000e+05
    7.3299417272e-03    1.0120000000e+05
    7.3398575187e-03    1.0120000000e+05
    7.3497719131e-03    1.0120000000e+05
    7.3599386960e-03    1.0120000000e+05
    7.3698591441e-03    1.0120000000e+05
    7.3797781952e-03    1.0120000000e+05
    7.3899449781e-03    1.0120000000e+05
    7.3998626322e-03    1.0120000000e+05
    7.4097830802e-03    1.0120000000e+05
    7.4199535884e-03    1.0120000000e+05
    7.4298745021e-03    1.0120000000e+05
    7.4397954158e-03    1.0120000000e+05
    7.4499635957e-03    1.0120000000e+05
    7.4598868378e-03    1.0120000000e+05
    7.4698105454e-03    1.0120000000e+05
    7.4799810536e-03    1.0120000000e+05
    7.4899033643e-03    1.0120000000e+05
    7.4998261407e-03    1.0120000000e+05
    7.5099989772e-03    1.0120000000e+05
    7.5199231505e-03    1.0120000000e+05
    7.5298468582e-03    1.0120000000e+05
    7.5397701003e-03    1.0120000000e+05
    7.5499429367e-03    1.0120000000e+05
    7.5598675758e-03    1.0120000000e+05
    7.5697912835e-03    1.0120000000e+05
    7.5799631886e-03    1.0120000000e+05
    7.5898878276e-03    1.0120000000e+05
    7.5998120010e-03    1.0120000000e+05
    7.6099839061e-03    1.0120000000e+05
    7.6199080795e-03    1.0120000000e+05
    7.6298322529e-03    1.0120000000e+05
    7.6397559606e-03    1.0120000000e+05
    7.6499278657e-03    1.0120000000e+05
    7.6598515734e-03    1.0120000000e+05
    7.6697748154e-03    1.0120000000e+05
    7.6799462549e-03    1.0120000000e+05
    7.6898694970e-03    1.0120000000e+05
    7.6997927390e-03    1.0120000000e+05
    7.7099637128e-03    1.0120000000e+05
    7.7198860236e-03    1.0120000000e+05
    7.7298087999e-03    1.0120000000e+05
    7.7399788424e-03    1.0120000000e+05
    7.7499011531e-03    1.0120000000e+05
    7.7598234639e-03    1.0120000000e+05
    7.7699930407e-03    1.0120000000e+05
    7.7799148858e-03    1.0120000000e+05
    7.7898362651e-03    1.0120000000e+05
    7.7997581102e-03    1.0120000000e+05
    7.8099276870e-03    1.0120000000e+05
    7.8198499978e-03    1.0120000000e+05
    7.8297732398e-03    1.0120000000e+05
    7.8399442136e-03    1.0120000000e+05
    7.8498665243e-03    1.0120000000e+05
    7.8597906977e-03    1.0120000000e+05
    7.8699663281e-03    1.0120000000e+05
    7.8798970208e-03    1.0120000000e+05
    7.8898305073e-03    1.0120000000e+05
    7.8997649252e-03    1.0120000000e+05
    7.9099470749e-03    1.0120000000e+05
    7.9198796302e-03    1.0120000000e+05
    7.9298121855e-03    1.0120000000e+05
    7.9399924725e-03    1.0120000000e+05
    7.9499240965e-03    1.0120000000e+05
    7.9598557204e-03    1.0120000000e+05
    7.9697882757e-03    1.0120000000e+05
    7.9799694940e-03    1.0120000000e+05
    7.9899029806e-03    1.0120000000e+05
    7.9998364672e-03    1.0120000000e+05
    8.0097690225e-03    1.0120000000e+05
    8.0199502409e-03    1.0120000000e+05
    8.0298827961e-03    1.0120000000e+05
    8.0398153514e-03    1.0120000000e+05
    8.0499956384e-03    1.0120000000e+05
    8.0599272624e-03    1.0120000000e+05
    8.0698598176e-03    1.0120000000e+05
    8.0797951669e-03    1.0120000000e+05
    8.0899782479e-03    1.0120000000e+05
    8.0999154598e-03    1.0120000000e+05
    8.1098563969e-03    1.0120000000e+05
    8.1198029220e-03    1.0120000000e+05
    8.1299990416e-03    1.0120000000e+05
    8.1399474293e-03    1.0120000000e+05
    8.1498948857e-03    1.0120000000e+05
    8.1598423421e-03    1.0120000000e+05
    8.1697888672e-03    1.0120000000e+05
    8.1799840555e-03    1.0120000000e+05
    8.1899296492e-03    1.0120000000e+05
    8.1998743117e-03    1.0120000000e+05
    8.2098208368e-03    1.0120000000e+05
    8.2197682932e-03    1.0120000000e+05
    8.2299653441e-03    1.0120000000e+05
    8.2399137318e-03    1.0120000000e+05
    8.2498621196e-03    1.0120000000e+05
    8.2598095760e-03    1.0120000000e+05
    8.2697561011e-03    1.0120000000e+05
    8.2799522206e-03    1.0120000000e+05
    8.2898987457e-03    1.0120000000e+05
    8.2998462021e-03    1.0120000000e+05
    8.3097927272e-03    1.0120000000e+05
    8.3199888468e-03    1.0120000000e+05
    8.3299353719e-03    1.0120000000e+05
    8.3398809657e-03    1.0120000000e+05
    8.3498274907e-03    1.0120000000e+05
    8.3597730845e-03    1.0120000000e+05
    8.3699673414e-03    1.0120000000e+05
    8.3799129352e-03    1.0120000000e+05
    8.3898585290e-03    1.0120000000e+05
    8.3998041227e-03    1.0120000000e+05
    8.4099983796e-03    1.0120000000e+05
    8.4199449047e-03    1.0120000000e+05
    8.4298904985e-03    1.0120000000e+05
    8.4398360923e-03    1.0120000000e+05
    8.4497854114e-03    1.0120000000e+05
    8.4599871188e-03    1.0120000000e+05
    8.4699392319e-03    1.0120000000e+05
    8.4798913449e-03    1.0120000000e+05
    8.4898490459e-03    1.0120000000e+05
    8.4998151287e-03    1.0120000000e+05
    8.5097877309e-03    1.0120000000e+05
    8.5197594017e-03    1.0120000000e+05
    8.5299853235e-03    1.0120000000e+05
    8.5399718955e-03    1.0120000000e+05
    8.5499687120e-03    1.0120000000e+05
    8.5599683225e-03    1.0120000000e+05
    8.5699716583e-03    1.0120000000e+05
    8.5799871013e-03    1.0120000000e+05
    8.5897576064e-03    1.0120000000e+05
    8.5997870192e-03    1.0120000000e+05
    8.6098182946e-03    1.0120000000e+05
    8.6198560894e-03    1.0120000000e+05
    8.6299041286e-03    1.0120000000e+05
    8.6399624124e-03    1.0120000000e+05
    8.6497701705e-03    1.0120000000e+05
    8.6598331109e-03    1.0120000000e+05
    8.6699044332e-03    1.0120000000e+05
    8.6799869314e-03    1.0120000000e+05
    8.6898235604e-03    1.0120000000e+05
    8.6999144405e-03    1.0120000000e+05
    8.7097557262e-03    1.0120000000e+05
    8.7198587134e-03    1.0120000000e+05
    8.7299747393e-03    1.0120000000e+05
    8.7398402393e-03    1.0120000000e+05
    8.7499618530e-03    1.0120000000e+05
    8.7598348036e-03    1.0120000000e+05
    8.7699675933e-03    1.0120000000e+05
    8.7798582390e-03    1.0120000000e+05
    8.7897544727e-03    1.0120000000e+05
    8.7999068201e-03    1.0120000000e+05
    8.8098123670e-03    1.0120000000e+05
    8.8199777529e-03    1.0120000000e+05
    8.8298944756e-03    1.0120000000e+05
    8.8398186490e-03    1.0120000000e+05
    8.8497474790e-03    1.0120000000e+05
    8.8599333540e-03    1.0120000000e+05
    8.8698724285e-03    1.0120000000e+05
    8.8798152283e-03    1.0120000000e+05
    8.8897636160e-03    1.0120000000e+05
    8.8999755681e-03    1.0120000000e+05
    8.9099342003e-03    1.0120000000e+05
    8.9198965579e-03    1.0120000000e+05
    8.9298672974e-03    1.0120000000e+05
    8.9398426935e-03    1.0120000000e+05
    8.9498236775e-03    1.0120000000e+05
    8.9598130435e-03    1.0120000000e+05
    8.9697986841e-03    1.0120000000e+05
    8.9797899127e-03    1.0120000000e+05
    8.9897923172e-03    1.0120000000e+05
    8.9997984469e-03    1.0120000000e+05
    9.0098120272e-03    1.0120000000e+05
    9.0198302642e-03    1.0120000000e+05
    9.0298429132e-03    1.0120000000e+05
    9.0398639441e-03    1.0120000000e+05
    9.0498970821e-03    1.0120000000e+05
    9.0599302202e-03    1.0120000000e+05
    9.0699689463e-03    1.0120000000e+05
    9.0797552839e-03    1.0120000000e+05
    9.0897949412e-03    1.0120000000e+05
    9.0998448431e-03    1.0120000000e+05
    9.1099059209e-03    1.0120000000e+05
    9.1199651361e-03    1.0120000000e+05
    9.1297747567e-03    1.0120000000e+05
    9.1398470104e-03    1.0120000000e+05
    9.1499146074e-03    1.0120000000e+05
    9.1599961743e-03    1.0120000000e+05
    9.1698253527e-03    1.0120000000e+05
    9.1799087822e-03    1.0120000000e+05
    9.1899996623e-03    1.0120000000e+05
    9.1998381540e-03    1.0120000000e+05
    9.2099299654e-03    1.0120000000e+05
    9.2197814956e-03    1.0120000000e+05
    9.2298937961e-03    1.0120000000e+05
    9.2397434637e-03    1.0120000000e+05
    9.2498594895e-03    1.0120000000e+05
    9.2599838972e-03    1.0120000000e+05
    9.2698400840e-03    1.0120000000e+05
    9.2799738050e-03    1.0120000000e+05
    9.2898495495e-03    1.0120000000e+05
    9.2999851331e-03    1.0120000000e+05
    9.3098683283e-03    1.0120000000e+05
    9.3197599053e-03    1.0120000000e+05
    9.3299029395e-03    1.0120000000e+05
    9.3397991732e-03    1.0120000000e+05
    9.3499533832e-03    1.0120000000e+05
    9.3598505482e-03    1.0120000000e+05
    9.3697616830e-03    1.0120000000e+05
    9.3799354509e-03    1.0120000000e+05
    9.3898437917e-03    1.0120000000e+05
    9.3997614458e-03    1.0120000000e+05
    9.4099389389e-03    1.0120000000e+05
    9.4198528677e-03    1.0120000000e+05
    9.4297844917e-03    1.0120000000e+05
    9.4399796799e-03    1.0120000000e+05
    9.4499150291e-03    1.0120000000e+05
    9.4598568976e-03    1.0120000000e+05
    9.4697969034e-03    1.0120000000e+05
    9.4799967483e-03    1.0120000000e+05
    9.4899451360e-03    1.0120000000e+05
    9.4998953864e-03    1.0120000000e+05
    9.5098474994e-03    1.0120000000e+05
    9.5198117197e-03    1.0120000000e+05
    9.5297759399e-03    1.0120000000e+05
    9.5397392288e-03    1.0120000000e+05
    9.5499716699e-03    1.0120000000e+05
    9.5599452034e-03    1.0120000000e+05
    9.5699187368e-03    1.0120000000e+05
    9.5798987895e-03    1.0120000000e+05
    9.5898816362e-03    1.0120000000e+05
    9.5998644829e-03    1.0120000000e+05
    9.6098547801e-03    1.0120000000e+05
    9.6198460087e-03    1.0120000000e+05
    9.6298353747e-03    1.0120000000e+05
    9.6398331225e-03    1.0120000000e+05
    9.6498345956e-03    1.0120000000e+05
    9.6598407254e-03    1.0120000000e+05
    9.6698552370e-03    1.0120000000e+05
    9.6798716113e-03    1.0120000000e+05
    9.6898861229e-03    1.0120000000e+05
    9.6999034286e-03    1.0120000000e+05
    9.7099216655e-03    1.0120000000e+05
    9.7199417651e-03    1.0120000000e+05
    9.7299711779e-03    1.0120000000e+05
    9.7397416830e-03    1.0120000000e+05
    9.7497794777e-03    1.0120000000e+05
    9.7598209977e-03    1.0120000000e+05
    9.7698597237e-03    1.0120000000e+05
    9.7798984498e-03    1.0120000000e+05
    9.7899436951e-03    1.0120000000e+05
    9.7999935970e-03    1.0120000000e+05
    9.8097845912e-03    1.0120000000e+05
    9.8198456690e-03    1.0120000000e+05
    9.8299076781e-03    1.0120000000e+05
    9.8399696872e-03    1.0120000000e+05
    9.8497681320e-03    1.0120000000e+05
    9.8598329350e-03    1.0120000000e+05
    9.8699033260e-03    1.0120000000e+05
    9.8799811676e-03    1.0120000000e+05
    9.8897954449e-03    1.0120000000e+05
    9.8998770118e-03    1.0120000000e+05
    9.9099613726e-03    1.0120000000e+05
    9.9197803065e-03    1.0120000000e+05
    9.9298665300e-03    1.0120000000e+05
    9.9399574101e-03    1.0120000000e+05
    9.9497884512e-03    1.0120000000e+05
    9.9598905072e-03    1.0120000000e+05
    9.9699953571e-03    1.0120000000e+05
    9.9798347801e-03    1.0120000000e+05
    9.9899424240e-03    1.0120000000e+05
    9.9997837096e-03    1.0120000000e+05
    1.0009894148e-02    1.0120000000e+05
    1.0019741021e-02    1.0120000000e+05
    1.0029860772e-02    1.0120000000e+05
    1.0039985180e-02    1.0120000000e+05
    1.0049846023e-02    1.0120000000e+05
    1.0059976019e-02    1.0120000000e+05
    1.0069840588e-02    1.0120000000e+05
    1.0079973377e-02    1.0120000000e+05
    1.0089839809e-02    1.0120000000e+05
    1.0099977255e-02    1.0120000000e+05
    1.0109852999e-02    1.0120000000e+05
    1.0119733401e-02    1.0120000000e+05
    1.0129881091e-02    1.0120000000e+05
    1.0139764287e-02    1.0120000000e+05
    1.0149915703e-02    1.0120000000e+05
    1.0159802623e-02    1.0120000000e+05
    1.0169959627e-02    1.0120000000e+05
    1.0179852135e-02    1.0120000000e+05
    1.0189750232e-02    1.0120000000e+05
    1.0199919343e-02    1.0120000000e+05
    1.0209821165e-02    1.0120000000e+05
    1.0219991207e-02    1.0120000000e+05
    1.0229894891e-02    1.0120000000e+05
    1.0239802301e-02    1.0120000000e+05
    1.0249982588e-02    1.0120000000e+05
    1.0259899311e-02    1.0120000000e+05
    1.0269819759e-02    1.0120000000e+05
    1.0279743932e-02    1.0120000000e+05
    1.0289935395e-02    1.0120000000e+05
    1.0299859568e-02    1.0120000000e+05
    1.0309786536e-02    1.0120000000e+05
    1.0319985449e-02    1.0120000000e+05
    1.0329919867e-02    1.0120000000e+05
    1.0339858942e-02    1.0120000000e+05
    1.0349801742e-02    1.0120000000e+05
    1.0359745473e-02    1.0120000000e+05
    1.0369957425e-02    1.0120000000e+05
    1.0379902087e-02    1.0120000000e+05
    1.0389852338e-02    1.0120000000e+05
    1.0399806313e-02    1.0120000000e+05
    1.0409764014e-02    1.0120000000e+05
    1.0419994593e-02    1.0120000000e+05
    1.0429958813e-02    1.0120000000e+05
    1.0439923964e-02    1.0120000000e+05
    1.0449890047e-02    1.0120000000e+05
    1.0459857993e-02    1.0120000000e+05
    1.0469830595e-02    1.0120000000e+05
    1.0479807854e-02    1.0120000000e+05
    1.0489789769e-02    1.0120000000e+05
    1.0499773547e-02    1.0120000000e+05
    1.0509760119e-02    1.0120000000e+05
    1.0519747622e-02    1.0120000000e+05
    1.0529736057e-02    1.0120000000e+05
    1.0539998300e-02    1.0120000000e+05
    1.0549995117e-02    1.0120000000e+05
    1.0559997521e-02    1.0120000000e+05
    1.0569732636e-02    1.0120000000e+05
    1.0579739697e-02    1.0120000000e+05
    1.0589749552e-02    1.0120000000e+05
    1.0599762201e-02    1.0120000000e+05
    1.0609774850e-02    1.0120000000e+05
    1.0619790293e-02    1.0120000000e+05
    1.0629810393e-02    1.0120000000e+05
    1.0639837943e-02    1.0120000000e+05
    1.0649869218e-02    1.0120000000e+05
    1.0659899563e-02    1.0120000000e+05
    1.0669933632e-02    1.0120000000e+05
    1.0679971427e-02    1.0120000000e+05
    1.0689738207e-02    1.0120000000e+05
    1.0699776933e-02    1.0120000000e+05
    1.0709820315e-02    1.0120000000e+05
    1.0719871148e-02    1.0120000000e+05
    1.0729927570e-02    1.0120000000e+05
    1.0739990510e-02    1.0120000000e+05
    1.0749786161e-02    1.0120000000e+05
    1.0759859346e-02    1.0120000000e+05
    1.0769933462e-02    1.0120000000e+05
    1.0779734701e-02    1.0120000000e+05
    1.0789806023e-02    1.0120000000e+05
    1.0799876414e-02    1.0120000000e+05
    1.0809944943e-02    1.0120000000e+05
    1.0819741525e-02    1.0120000000e+05
    1.0829812847e-02    1.0120000000e+05
    1.0839886963e-02    1.0120000000e+05
    1.0849962942e-02    1.0120000000e+05
    1.0859765112e-02    1.0120000000e+05
    1.0869838297e-02    1.0120000000e+05
    1.0879912414e-02    1.0120000000e+05
    1.0889987461e-02    1.0120000000e+05
    1.0899791494e-02    1.0120000000e+05
    1.0909868404e-02    1.0120000000e+05
    1.0919945315e-02    1.0120000000e+05
    1.0929751210e-02    1.0120000000e+05
    1.0939828120e-02    1.0120000000e+05
    1.0949905030e-02    1.0120000000e+05
    1.0959986597e-02    1.0120000000e+05
    1.0969804600e-02    1.0120000000e+05
    1.0979897343e-02    1.0120000000e+05
    1.0989987291e-02    1.0120000000e+05
    1.0999806225e-02    1.0120000000e+05
    1.1009908281e-02    1.0120000000e+05
    1.1019744910e-02    1.0120000000e+05
    1.1029860005e-02    1.0120000000e+05
    1.1039976962e-02    1.0120000000e+05
    1.1049819179e-02    1.0120000000e+05
    1.1059933342e-02    1.0120000000e+05
    1.1069771834e-02    1.0120000000e+05
    1.1079882272e-02    1.0120000000e+05
    1.1089992709e-02    1.0120000000e+05
    1.1099833995e-02    1.0120000000e+05
    1.1109951884e-02    1.0120000000e+05
    1.1119797826e-02    1.0120000000e+05
    1.1129916646e-02    1.0120000000e+05
    1.1139761657e-02    1.0120000000e+05
    1.1149878614e-02    1.0120000000e+05
    1.1159994639e-02    1.0120000000e+05
    1.1169835925e-02    1.0120000000e+05
    1.1179951951e-02    1.0120000000e+05
    1.1189794168e-02    1.0120000000e+05
    1.1199910194e-02    1.0120000000e+05
    1.1209752411e-02    1.0120000000e+05
    1.1219867505e-02    1.0120000000e+05
    1.1229981668e-02    1.0120000000e+05
    1.1239821091e-02    1.0120000000e+05
    1.1249934323e-02    1.0120000000e+05
    1.1259773746e-02    1.0120000000e+05
    1.1269886047e-02    1.0120000000e+05
    1.1279998347e-02    1.0120000000e+05
    1.1289836839e-02    1.0120000000e+05
    1.1299948208e-02    1.0120000000e+05
    1.1309784837e-02    1.0120000000e+05
    1.1319894344e-02    1.0120000000e+05
    1.1329730973e-02    1.0120000000e+05
    1.1339841411e-02    1.0120000000e+05
    1.1349951848e-02    1.0120000000e+05
    1.1359788477e-02    1.0120000000e+05
    1.1369898915e-02    1.0120000000e+05
    1.1379736476e-02    1.0120000000e+05
    1.1389847845e-02    1.0120000000e+05
    1.1399961077e-02    1.0120000000e+05
    1.1409803294e-02    1.0120000000e+05
    1.1419921182e-02    1.0120000000e+05
    1.1429768987e-02    1.0120000000e+05
    1.1439887807e-02    1.0120000000e+05
    1.1449735612e-02    1.0120000000e+05
    1.1459860951e-02    1.0120000000e+05
    1.1469990946e-02    1.0120000000e+05
    1.1479847133e-02    1.0120000000e+05
    1.1489983648e-02    1.0120000000e+05
    1.1499854736e-02    1.0120000000e+05
    1.1509726755e-02    1.0120000000e+05
    1.1519871652e-02    1.0120000000e+05
    1.1529741809e-02    1.0120000000e+05
    1.1539883912e-02    1.0120000000e+05
    1.1549751274e-02    1.0120000000e+05
    1.1559890583e-02    1.0120000000e+05
    1.1569756083e-02    1.0120000000e+05
    1.1579898186e-02    1.0120000000e+05
    1.1589766480e-02    1.0120000000e+05
    1.1599912308e-02    1.0120000000e+05
    1.1609787121e-02    1.0120000000e+05
    1.1619936675e-02    1.0120000000e+05
    1.1629810557e-02    1.0120000000e+05
    1.1639957316e-02    1.0120000000e+05
    1.1649829336e-02    1.0120000000e+05
    1.1659974232e-02    1.0120000000e+05
    1.1669844389e-02    1.0120000000e+05
    1.1679987423e-02    1.0120000000e+05
    1.1689856648e-02    1.0120000000e+05
    1.1699999683e-02    1.0120000000e+05
    1.1709867977e-02    1.0120000000e+05
    1.1719735339e-02    1.0120000000e+05
    1.1729875579e-02    1.0120000000e+05
    1.1739742011e-02    1.0120000000e+05
    1.1749881320e-02    1.0120000000e+05
    1.1759745888e-02    1.0120000000e+05
    1.1769885197e-02    1.0120000000e+05
    1.1779749766e-02    1.0120000000e+05
    1.1789888144e-02    1.0120000000e+05
    1.1799752712e-02    1.0120000000e+05
    1.1809890158e-02    1.0120000000e+05
    1.1819753796e-02    1.0120000000e+05
    1.1829890311e-02    1.0120000000e+05
    1.1839752086e-02    1.0120000000e+05
    1.1849887669e-02    1.0120000000e+05
    1.1859748513e-02    1.0120000000e+05
    1.1869882233e-02    1.0120000000e+05
    1.1879741214e-02    1.0120000000e+05
    1.1889874004e-02    1.0120000000e+05
    1.1899732053e-02    1.0120000000e+05
    1.1909864843e-02    1.0120000000e+05
    1.1919726618e-02    1.0120000000e+05
    1.1929863133e-02    1.0120000000e+05
    1.1939726770e-02    1.0120000000e+05
    1.1949866079e-02    1.0120000000e+05
    1.1959735304e-02    1.0120000000e+05
    1.1969882064e-02    1.0120000000e+05
    1.1979758739e-02    1.0120000000e+05
    1.1989912950e-02    1.0120000000e+05
    1.1999792419e-02    1.0120000000e+05
    1.2009946629e-02    1.0120000000e+05
    1.2019841000e-02    1.0120000000e+05
    1.2029746547e-02    1.0120000000e+05
    1.2039950117e-02    1.0120000000e+05
    1.2049911544e-02    1.0120000000e+05
    1.2059905566e-02    1.0120000000e+05
    1.2069935910e-02    1.0120000000e+05
    1.2079996988e-02    1.0120000000e+05
    1.2089804746e-02    1.0120000000e+05
    1.2099918909e-02    1.0120000000e+05
    1.2109780684e-02    1.0120000000e+05
    1.2119949795e-02    1.0120000000e+05
    1.2129865587e-02    1.0120000000e+05
    1.2139804661e-02    1.0120000000e+05
    1.2149764225e-02    1.0120000000e+05
    1.2159744278e-02    1.0120000000e+05
    1.2169745751e-02    1.0120000000e+05
    1.2179771438e-02    1.0120000000e+05
    1.2189828791e-02    1.0120000000e+05
    1.2199922465e-02    1.0120000000e+05
    1.2209769338e-02    1.0120000000e+05
    1.2219947763e-02    1.0120000000e+05
    1.2229871005e-02    1.0120000000e+05
    1.2239825912e-02    1.0120000000e+05
    1.2249804102e-02    1.0120000000e+05
    1.2259789743e-02    1.0120000000e+05
    1.2269783765e-02    1.0120000000e+05
    1.2279785238e-02    1.0120000000e+05
    1.2289787643e-02    1.0120000000e+05
    1.2299794704e-02    1.0120000000e+05
    1.2309812941e-02    1.0120000000e+05
    1.2319854461e-02    1.0120000000e+05
    1.2329925783e-02    1.0120000000e+05
    1.2339731678e-02    1.0120000000e+05
    1.2349866331e-02    1.0120000000e+05
    1.2359727174e-02    1.0120000000e+05
    1.2369904667e-02    1.0120000000e+05
    1.2379793450e-02    1.0120000000e+05
    1.2389989570e-02    1.0120000000e+05
    1.2399891391e-02    1.0120000000e+05
    1.2409801595e-02    1.0120000000e+05
    1.2419722043e-02    1.0120000000e+05
    1.2429963797e-02    1.0120000000e+05
    1.2439928018e-02    1.0120000000e+05
    1.2449918315e-02    1.0120000000e+05
    1.2459945865e-02    1.0120000000e+05
    1.2469724752e-02    1.0120000000e+05
    1.2479898520e-02    1.0120000000e+05
    1.2489892542e-02    1.0120000000e+05
    1.2499727309e-02    1.0120000000e+05
    1.2509740889e-02    1.0120000000e+05
    1.2519942597e-02    1.0120000000e+05
    1.2529999018e-02    1.0120000000e+05
    1.2539890595e-02    1.0120000000e+05
    1.2549947016e-02    1.0120000000e+05
    1.2559811585e-02    1.0120000000e+05
    1.2569825165e-02    1.0120000000e+05
    1.2579984032e-02    1.0120000000e+05
    1.2589917518e-02    1.0120000000e+05
    1.2599981390e-02    1.0120000000e+05
    1.2609796599e-02    1.0120000000e+05
    1.2619731016e-02    1.0120000000e+05
    1.2629783712e-02    1.0120000000e+05
    1.2639953755e-02    1.0120000000e+05
    1.2649842538e-02    1.0120000000e+05
    1.2659839354e-02    1.0120000000e+05
    1.2669943273e-02    1.0120000000e+05
    1.2679742649e-02    1.0120000000e+05
    1.2689638883e-02    1.0120000000e+05
    1.2699631974e-02    1.0120000000e+05
    1.2709724717e-02    1.0120000000e+05
    1.2719911523e-02    1.0120000000e+05
    1.2729762122e-02    1.0120000000e+05
    1.2739694677e-02    1.0120000000e+05
    1.2749712914e-02    1.0120000000e+05
    1.2759814970e-02    1.0120000000e+05
    1.2769556604e-02    1.0120000000e+05
    1.2779821642e-02    1.0120000000e+05
    1.2789713219e-02    1.0120000000e+05
    1.2799665332e-02    1.0120000000e+05
    1.2809666805e-02    1.0120000000e+05
    1.2819706462e-02    1.0120000000e+05
    1.2829774991e-02    1.0120000000e+05
    1.2839872390e-02    1.0120000000e+05
    1.2849549763e-02    1.0120000000e+05
    1.2859712355e-02    1.0120000000e+05
    1.2869927101e-02    1.0120000000e+05
    1.2879720889e-02    1.0120000000e+05
    1.2889542617e-02    1.0120000000e+05
    1.2899865396e-02    1.0120000000e+05
    1.2909762561e-02    1.0120000000e+05
    1.2919706292e-02    1.0120000000e+05
    1.2929671444e-02    1.0120000000e+05
    1.2939678505e-02    1.0120000000e+05
    1.2949715368e-02    1.0120000000e+05
    1.2959800661e-02    1.0120000000e+05
    1.2969951145e-02    1.0120000000e+05
    1.2979584746e-02    1.0120000000e+05
    1.2989795767e-02    1.0120000000e+05
    1.2999535538e-02    1.0120000000e+05
    1.3009788468e-02    1.0120000000e+05
    1.3019609265e-02    1.0120000000e+05
    1.3029929250e-02    1.0120000000e+05
    1.3039815240e-02    1.0120000000e+05
    1.3049712405e-02    1.0120000000e+05
    1.3059634715e-02    1.0120000000e+05
    1.3069639914e-02    1.0120000000e+05
    1.3079624623e-02    1.0120000000e+05
    1.3089606538e-02    1.0120000000e+05
    1.3099722564e-02    1.0120000000e+05
    1.3109789230e-02    1.0120000000e+05
    1.3119889423e-02    1.0120000000e+05
    1.3129534200e-02    1.0120000000e+05
    1.3139719144e-02    1.0120000000e+05
    1.3149880804e-02    1.0120000000e+05
    1.3159595430e-02    1.0120000000e+05
    1.3169868849e-02    1.0120000000e+05
    1.3179619797e-02    1.0120000000e+05
    1.3189869933e-02    1.0120000000e+05
    1.3199684210e-02    1.0120000000e+05
    1.3209512457e-02    1.0120000000e+05
    1.3219906949e-02    1.0120000000e+05
    1.3229757547e-02    1.0120000000e+05
    1.3239662163e-02    1.0120000000e+05
    1.3249603100e-02    1.0120000000e+05
    1.3259636238e-02    1.0120000000e+05
    1.3269644231e-02    1.0120000000e+05
    1.3279688545e-02    1.0120000000e+05
    1.3289755210e-02    1.0120000000e+05
    1.3299793005e-02    1.0120000000e+05
    1.3309864327e-02    1.0120000000e+05
    1.3319961727e-02    1.0120000000e+05
    1.3329581358e-02    1.0120000000e+05
    1.3339736499e-02    1.0120000000e+05
    1.3349898160e-02    1.0120000000e+05
    1.3359582052e-02    1.0120000000e+05
    1.3369787484e-02    1.0120000000e+05
    1.3379509561e-02    1.0120000000e+05
    1.3389763422e-02    1.0120000000e+05
    1.3399515301e-02    1.0120000000e+05
    1.3409811072e-02    1.0120000000e+05
    1.3419569470e-02    1.0120000000e+05
    1.3429895043e-02    1.0120000000e+05
    1.3439666480e-02    1.0120000000e+05
    1.3449932449e-02    1.0120000000e+05
    1.3459640555e-02    1.0120000000e+05
    1.3469761238e-02    1.0120000000e+05
    1.3479663059e-02    1.0120000000e+05
    1.3489853591e-02    1.0120000000e+05
    1.3499749824e-02    1.0120000000e+05
    1.3509828597e-02    1.0120000000e+05
    1.3519592583e-02    1.0120000000e+05
    1.3529941440e-02    1.0120000000e+05
    1.3539937325e-02    1.0120000000e+05
    1.3549592346e-02    1.0120000000e+05
    1.3559710234e-02    1.0120000000e+05
    1.3569827192e-02    1.0120000000e+05
    1.3579906896e-02    1.0120000000e+05
    1.3589909300e-02    1.0120000000e+05
    1.3599796221e-02    1.0120000000e+05
    1.3609841466e-02    1.0120000000e+05
    1.3619950041e-02    1.0120000000e+05
    1.3629738241e-02    1.0120000000e+05
    1.3639932498e-02    1.0120000000e+05
    1.3649808243e-02    1.0120000000e+05
    1.3659888878e-02    1.0120000000e+05
    1.3669995591e-02    1.0120000000e+05
    1.3679897413e-02    1.0120000000e+05
    1.3689938001e-02    1.0120000000e+05
    1.3699927367e-02    1.0120000000e+05
    1.3709888794e-02    1.0120000000e+05
    1.3719963841e-02    1.0120000000e+05
    1.3729950413e-02    1.0120000000e+05
    1.3739938848e-02    1.0120000000e+05
    1.3749881648e-02    1.0120000000e+05
    1.3759992085e-02    1.0120000000e+05
    1.3769996352e-02    1.0120000000e+05
    1.3779888861e-02    1.0120000000e+05
    1.3789854944e-02    1.0120000000e+05
    1.3799858280e-02    1.0120000000e+05
    1.3809866272e-02    1.0120000000e+05
    1.3819850050e-02    1.0120000000e+05
    1.3829976320e-02    1.0120000000e+05
    1.3839785941e-02    1.0120000000e+05
    1.3849903829e-02    1.0120000000e+05
    1.3859878294e-02    1.0120000000e+05
    1.3869936578e-02    1.0120000000e+05
    1.3879823498e-02    1.0120000000e+05
    1.3889991678e-02    1.0120000000e+05
    1.3899975456e-02    1.0120000000e+05
    1.3909799047e-02    1.0120000000e+05
    1.3919868506e-02    1.0120000000e+05
    1.3929987326e-02    1.0120000000e+05
    1.3939907774e-02    1.0120000000e+05
    1.3949869201e-02    1.0120000000e+05
    1.3959840871e-02    1.0120000000e+05
    1.3969866559e-02    1.0120000000e+05
    1.3979898766e-02    1.0120000000e+05
    1.3989971019e-02    1.0120000000e+05
    1.3999831863e-02    1.0120000000e+05
    1.4009936713e-02    1.0120000000e+05
    1.4019847848e-02    1.0120000000e+05
    1.4029996470e-02    1.0120000000e+05
    1.4039952308e-02    1.0120000000e+05
    1.4049898833e-02    1.0120000000e+05
    1.4059910551e-02    1.0120000000e+05
    1.4069898054e-02    1.0120000000e+05
    1.4079923742e-02    1.0120000000e+05
    1.4089972712e-02    1.0120000000e+05
    1.4099810272e-02    1.0120000000e+05
    1.4109886251e-02    1.0120000000e+05
    1.4119773172e-02    1.0120000000e+05
    1.4129908755e-02    1.0120000000e+05
    1.4139805920e-02    1.0120000000e+05
    1.4149986207e-02    1.0120000000e+05
    1.4159942977e-02    1.0120000000e+05
    1.4169898815e-02    1.0120000000e+05
    1.4179884456e-02    1.0120000000e+05
    1.4189898968e-02    1.0120000000e+05
    1.4199904166e-02    1.0120000000e+05
    1.4209931716e-02    1.0120000000e+05
    1.4219993725e-02    1.0120000000e+05
    1.4229807071e-02    1.0120000000e+05
    1.4239876531e-02    1.0120000000e+05
    1.4249983244e-02    1.0120000000e+05
    1.4259837568e-02    1.0120000000e+05
    1.4269942418e-02    1.0120000000e+05
    1.4279849827e-02    1.0120000000e+05
    1.4289995655e-02    1.0120000000e+05
    1.4299889095e-02    1.0120000000e+05
    1.4309826307e-02    1.0120000000e+05
    1.4319774695e-02    1.0120000000e+05
    1.4329951257e-02    1.0120000000e+05
    1.4339910820e-02    1.0120000000e+05
    1.4349894598e-02    1.0120000000e+05
    1.4359869063e-02    1.0120000000e+05
    1.4369861223e-02    1.0120000000e+05
    1.4379881322e-02    1.0120000000e+05
    1.4389893040e-02    1.0120000000e+05
    1.4399914071e-02    1.0120000000e+05
    1.4409967698e-02    1.0120000000e+05
    1.4419777319e-02    1.0120000000e+05
    1.4429828152e-02    1.0120000000e+05
    1.4439902268e-02    1.0120000000e+05
    1.4449991286e-02    1.0120000000e+05
    1.4459831640e-02    1.0120000000e+05
    1.4469928108e-02    1.0120000000e+05
    1.4479799196e-02    1.0120000000e+05
    1.4489919879e-02    1.0120000000e+05
    1.4499803074e-02    1.0120000000e+05
    1.4509946108e-02    1.0120000000e+05
    1.4519842342e-02    1.0120000000e+05
    1.4529994689e-02    1.0120000000e+05
    1.4539920725e-02    1.0120000000e+05
    1.4549852349e-02    1.0120000000e+05
    1.4559783973e-02    1.0120000000e+05
    1.4569975436e-02    1.0120000000e+05
    1.4579931274e-02    1.0120000000e+05
    1.4589890838e-02    1.0120000000e+05
    1.4599856921e-02    1.0120000000e+05
    1.4609831385e-02    1.0120000000e+05
    1.4619816095e-02    1.0120000000e+05
    1.4629810117e-02    1.0120000000e+05
    1.4639805071e-02    1.0120000000e+05
    1.4649811201e-02    1.0120000000e+05
    1.4659821987e-02    1.0120000000e+05
    1.4669843949e-02    1.0120000000e+05
    1.4679875225e-02    1.0120000000e+05
    1.4689905569e-02    1.0120000000e+05
    1.4699943364e-02    1.0120000000e+05
    1.4709994197e-02    1.0120000000e+05
    1.4719800092e-02    1.0120000000e+05
    1.4729859307e-02    1.0120000000e+05
    1.4739924110e-02    1.0120000000e+05
    1.4749998227e-02    1.0120000000e+05
    1.4759830199e-02    1.0120000000e+05
    1.4769916423e-02    1.0120000000e+05
    1.4779753983e-02    1.0120000000e+05
    1.4789849520e-02    1.0120000000e+05
    1.4799956232e-02    1.0120000000e+05
    1.4809814282e-02    1.0120000000e+05
    1.4819930308e-02    1.0120000000e+05
    1.4829796739e-02    1.0120000000e+05
    1.4839922078e-02    1.0120000000e+05
    1.4849806204e-02    1.0120000000e+05
    1.4859940857e-02    1.0120000000e+05
    1.4869827777e-02    1.0120000000e+05
    1.4879975468e-02    1.0120000000e+05
    1.4889875427e-02    1.0120000000e+05
    1.4899782836e-02    1.0120000000e+05
    1.4909941703e-02    1.0120000000e+05
    1.4919850975e-02    1.0120000000e+05
    1.4929774217e-02    1.0120000000e+05
    1.4939951710e-02    1.0120000000e+05
    1.4949884266e-02    1.0120000000e+05
    1.4959810302e-02    1.0120000000e+05
    1.4969996177e-02    1.0120000000e+05
    1.4979941770e-02    1.0120000000e+05
    1.4989882708e-02    1.0120000000e+05
    1.4999832958e-02    1.0120000000e+05
    1.5009782277e-02    1.0120000000e+05
    1.5019993298e-02    1.0120000000e+05
    1.5029955655e-02    1.0120000000e+05
    1.5039913356e-02    1.0120000000e+05
    1.5049878508e-02    1.0120000000e+05
    1.5059847385e-02    1.0120000000e+05
    1.5069819055e-02    1.0120000000e+05
    1.5079799108e-02    1.0120000000e+05
    1.5089777298e-02    1.0120000000e+05
    1.5099762008e-02    1.0120000000e+05
    1.5109745786e-02    1.0120000000e+05
    1.5119988471e-02    1.0120000000e+05
    1.5129976906e-02    1.0120000000e+05
    1.5139958821e-02    1.0120000000e+05
    1.5149950050e-02    1.0120000000e+05
    1.5159949660e-02    1.0120000000e+05
    1.5169951133e-02    1.0120000000e+05
    1.5179957263e-02    1.0120000000e+05
    1.5189963393e-02    1.0120000000e+05
    1.5199970454e-02    1.0120000000e+05
    1.5209976584e-02    1.0120000000e+05
    1.5219981782e-02    1.0120000000e+05
    1.5229987912e-02    1.0120000000e+05
    1.5239992179e-02    1.0120000000e+05
    1.5249997377e-02    1.0120000000e+05
    1.5259745531e-02    1.0120000000e+05
    1.5269750729e-02    1.0120000000e+05
    1.5279756859e-02    1.0120000000e+05
    1.5289762989e-02    1.0120000000e+05
    1.5299770981e-02    1.0120000000e+05
    1.5309779905e-02    1.0120000000e+05
    1.5319789760e-02    1.0120000000e+05
    1.5329799615e-02    1.0120000000e+05
    1.5339809470e-02    1.0120000000e+05
    1.5349820256e-02    1.0120000000e+05
    1.5359830111e-02    1.0120000000e+05
    1.5369840898e-02    1.0120000000e+05
    1.5379850753e-02    1.0120000000e+05
    1.5389860608e-02    1.0120000000e+05
    1.5399871394e-02    1.0120000000e+05
    1.5409882180e-02    1.0120000000e+05
    1.5419893898e-02    1.0120000000e+05
    1.5429907478e-02    1.0120000000e+05
    1.5439920127e-02    1.0120000000e+05
    1.5449934639e-02    1.0120000000e+05
    1.5459949151e-02    1.0120000000e+05
    1.5469963662e-02    1.0120000000e+05
    1.5479979105e-02    1.0120000000e+05
    1.5489994548e-02    1.0120000000e+05
    1.5499753878e-02    1.0120000000e+05
    1.5509771183e-02    1.0120000000e+05
    1.5519788489e-02    1.0120000000e+05
    1.5529805794e-02    1.0120000000e+05
    1.5539824031e-02    1.0120000000e+05
    1.5549843200e-02    1.0120000000e+05
    1.5559862368e-02    1.0120000000e+05
    1.5569881536e-02    1.0120000000e+05
    1.5579900704e-02    1.0120000000e+05
    1.5589919873e-02    1.0120000000e+05
    1.5599939972e-02    1.0120000000e+05
    1.5609959140e-02    1.0120000000e+05
    1.5619979240e-02    1.0120000000e+05
    1.5629997477e-02    1.0120000000e+05
    1.5639761463e-02    1.0120000000e+05
    1.5649780631e-02    1.0120000000e+05
    1.5659801662e-02    1.0120000000e+05
    1.5669824556e-02    1.0120000000e+05
    1.5679851174e-02    1.0120000000e+05
    1.5689881518e-02    1.0120000000e+05
    1.5699915588e-02    1.0120000000e+05
    1.5709951520e-02    1.0120000000e+05
    1.5719985589e-02    1.0120000000e+05
    1.5729762614e-02    1.0120000000e+05
    1.5739792958e-02    1.0120000000e+05
    1.5749825165e-02    1.0120000000e+05
    1.5759855509e-02    1.0120000000e+05
    1.5769885853e-02    1.0120000000e+05
    1.5779919922e-02    1.0120000000e+05
    1.5789955854e-02    1.0120000000e+05
    1.5799995512e-02    1.0120000000e+05
    1.5809776261e-02    1.0120000000e+05
    1.5819814056e-02    1.0120000000e+05
    1.5829849988e-02    1.0120000000e+05
    1.5839887783e-02    1.0120000000e+05
    1.5849927440e-02    1.0120000000e+05
    1.5859965235e-02    1.0120000000e+05
    1.5869744122e-02    1.0120000000e+05
    1.5879781917e-02    1.0120000000e+05
    1.5889819711e-02    1.0120000000e+05
    1.5899857506e-02    1.0120000000e+05
    1.5909895301e-02    1.0120000000e+05
    1.5919934958e-02    1.0120000000e+05
    1.5929974616e-02    1.0120000000e+05
    1.5939755365e-02    1.0120000000e+05
    1.5949795023e-02    1.0120000000e+05
    1.5959834680e-02    1.0120000000e+05
    1.5969872475e-02    1.0120000000e+05
    1.5979910269e-02    1.0120000000e+05
    1.5989949927e-02    1.0120000000e+05
    1.5999989584e-02    1.0120000000e+05
    1.6009772196e-02    1.0120000000e+05
    1.6019811854e-02    1.0120000000e+05
    1.6029851511e-02    1.0120000000e+05
    1.6039891168e-02    1.0120000000e+05
    1.6049930826e-02    1.0120000000e+05
    1.6059968621e-02    1.0120000000e+05
    1.6069751233e-02    1.0120000000e+05
    1.6079790890e-02    1.0120000000e+05
    1.6089832410e-02    1.0120000000e+05
    1.6099872068e-02    1.0120000000e+05
    1.6109911725e-02    1.0120000000e+05
    1.6119951382e-02    1.0120000000e+05
    1.6129991040e-02    1.0120000000e+05
    1.6139773652e-02    1.0120000000e+05
    1.6149815172e-02    1.0120000000e+05
    1.6159854829e-02    1.0120000000e+05
    1.6169894487e-02    1.0120000000e+05
    1.6179934144e-02    1.0120000000e+05
    1.6189975664e-02    1.0120000000e+05
    1.6199758276e-02    1.0120000000e+05
    1.6209797934e-02    1.0120000000e+05
    1.6219839454e-02    1.0120000000e+05
    1.6229879111e-02    1.0120000000e+05
    1.6239920631e-02    1.0120000000e+05
    1.6249960288e-02    1.0120000000e+05
    1.6259742901e-02    1.0120000000e+05
    1.6269784421e-02    1.0120000000e+05
    1.6279825941e-02    1.0120000000e+05
    1.6289865598e-02    1.0120000000e+05
    1.6299907118e-02    1.0120000000e+05
    1.6309946775e-02    1.0120000000e+05
    1.6319988295e-02    1.0120000000e+05
    1.6329770908e-02    1.0120000000e+05
    1.6339812428e-02    1.0120000000e+05
    1.6349853948e-02    1.0120000000e+05
    1.6359895468e-02    1.0120000000e+05
    1.6369935125e-02    1.0120000000e+05
    1.6379976645e-02    1.0120000000e+05
    1.6389761120e-02    1.0120000000e+05
    1.6399802640e-02    1.0120000000e+05
    1.6409844160e-02    1.0120000000e+05
    1.6419885680e-02    1.0120000000e+05
    1.6429925337e-02    1.0120000000e+05
    1.6439966857e-02    1.0120000000e+05
    1.6449751332e-02    1.0120000000e+05
    1.6459792852e-02    1.0120000000e+05
    1.6469834372e-02    1.0120000000e+05
    1.6479875892e-02    1.0120000000e+05
    1.6489917412e-02    1.0120000000e+05
    1.6499958932e-02    1.0120000000e+05
    1.6509743407e-02    1.0120000000e+05
    1.6519784927e-02    1.0120000000e+05
    1.6529826447e-02    1.0120000000e+05
    1.6539867967e-02    1.0120000000e+05
    1.6549909487e-02    1.0120000000e+05
    1.6559952870e-02    1.0120000000e+05
    1.6569994390e-02    1.0120000000e+05
    1.6579778865e-02    1.0120000000e+05
    1.6589820385e-02    1.0120000000e+05
    1.6599863768e-02    1.0120000000e+05
    1.6609905288e-02    1.0120000000e+05
    1.6619946808e-02    1.0120000000e+05
    1.6629990190e-02    1.0120000000e+05
    1.6639774665e-02    1.0120000000e+05
    1.6649816185e-02    1.0120000000e+05
    1.6659859568e-02    1.0120000000e+05
    1.6669902951e-02    1.0120000000e+05
    1.6679944471e-02    1.0120000000e+05
    1.6689987853e-02    1.0120000000e+05
    1.6699774191e-02    1.0120000000e+05
    1.6709815711e-02    1.0120000000e+05
    1.6719859093e-02    1.0120000000e+05
    1.6729902476e-02    1.0120000000e+05
    1.6739945859e-02    1.0120000000e+05
    1.6749989241e-02    1.0120000000e+05
    1.6759773716e-02    1.0120000000e+05
    1.6769817099e-02    1.0120000000e+05
    1.6779860482e-02    1.0120000000e+05
    1.6789905727e-02    1.0120000000e+05
    1.6799949110e-02    1.0120000000e+05
    1.6809994355e-02    1.0120000000e+05
    1.6819780692e-02    1.0120000000e+05
    1.6829825938e-02    1.0120000000e+05
    1.6839871183e-02    1.0120000000e+05
    1.6849914566e-02    1.0120000000e+05
    1.6859959811e-02    1.0120000000e+05
    1.6869746149e-02    1.0120000000e+05
    1.6879791394e-02    1.0120000000e+05
    1.6889836639e-02    1.0120000000e+05
    1.6899881884e-02    1.0120000000e+05
    1.6909927130e-02    1.0120000000e+05
    1.6919972375e-02    1.0120000000e+05
    1.6929760575e-02    1.0120000000e+05
    1.6939805821e-02    1.0120000000e+05
    1.6949852929e-02    1.0120000000e+05
    1.6959898174e-02    1.0120000000e+05
    1.6969945282e-02    1.0120000000e+05
    1.6979990527e-02    1.0120000000e+05
    1.6989780590e-02    1.0120000000e+05
    1.6999825835e-02    1.0120000000e+05
    1.7009872943e-02    1.0120000000e+05
    1.7019920051e-02    1.0120000000e+05
    1.7029965296e-02    1.0120000000e+05
    1.7039755359e-02    1.0120000000e+05
    1.7049800605e-02    1.0120000000e+05
    1.7059847713e-02    1.0120000000e+05
    1.7069896683e-02    1.0120000000e+05
    1.7079943791e-02    1.0120000000e+05
    1.7089990899e-02    1.0120000000e+05
    1.7099782825e-02    1.0120000000e+05
    1.7109831795e-02    1.0120000000e+05
    1.7119878903e-02    1.0120000000e+05
    1.7129927874e-02    1.0120000000e+05
    1.7139976844e-02    1.0120000000e+05
    1.7149766907e-02    1.0120000000e+05
    1.7159815878e-02    1.0120000000e+05
    1.7169864848e-02    1.0120000000e+05
    1.7179913819e-02    1.0120000000e+05
    1.7189964652e-02    1.0120000000e+05
    1.7199756578e-02    1.0120000000e+05
    1.7209805548e-02    1.0120000000e+05
    1.7219856381e-02    1.0120000000e+05
    1.7229907215e-02    1.0120000000e+05
    1.7239956185e-02    1.0120000000e+05
    1.7249748111e-02    1.0120000000e+05
    1.7259798944e-02    1.0120000000e+05
    1.7269849777e-02    1.0120000000e+05
    1.7279900610e-02    1.0120000000e+05
    1.7289951444e-02    1.0120000000e+05
    1.7299745232e-02    1.0120000000e+05
    1.7309796065e-02    1.0120000000e+05
    1.7319846898e-02    1.0120000000e+05
    1.7329897732e-02    1.0120000000e+05
    1.7339948565e-02    1.0120000000e+05
    1.7349742353e-02    1.0120000000e+05
    1.7359795049e-02    1.0120000000e+05
    1.7369845882e-02    1.0120000000e+05
    1.7379898578e-02    1.0120000000e+05
    1.7389951274e-02    1.0120000000e+05
    1.7399745062e-02    1.0120000000e+05
    1.7409797758e-02    1.0120000000e+05
    1.7419850454e-02    1.0120000000e+05
    1.7429903150e-02    1.0120000000e+05
    1.7439955845e-02    1.0120000000e+05
    1.7449751496e-02    1.0120000000e+05
    1.7459804192e-02    1.0120000000e+05
    1.7469856888e-02    1.0120000000e+05
    1.7479909584e-02    1.0120000000e+05
    1.7489964142e-02    1.0120000000e+05
    1.7499759793e-02    1.0120000000e+05
    1.7509812489e-02    1.0120000000e+05
    1.7519867048e-02    1.0120000000e+05
    1.7529921606e-02    1.0120000000e+05
    1.7539974302e-02    1.0120000000e+05
    1.7549771816e-02    1.0120000000e+05
    1.7559826374e-02    1.0120000000e+05
    1.7569880933e-02    1.0120000000e+05
    1.7579933628e-02    1.0120000000e+05
    1.7589990050e-02    1.0120000000e+05
    1.7599785700e-02    1.0120000000e+05
    1.7609840259e-02    1.0120000000e+05
    1.7619896680e-02    1.0120000000e+05
    1.7629951239e-02    1.0120000000e+05
    1.7639748752e-02    1.0120000000e+05
    1.7649803311e-02    1.0120000000e+05
    1.7659859732e-02    1.0120000000e+05
    1.7669914290e-02    1.0120000000e+05
    1.7679970711e-02    1.0120000000e+05
    1.7689768225e-02    1.0120000000e+05
    1.7699824646e-02    1.0120000000e+05
    1.7709881067e-02    1.0120000000e+05
    1.7719935626e-02    1.0120000000e+05
    1.7729992047e-02    1.0120000000e+05
    1.7739791423e-02    1.0120000000e+05
    1.7749847844e-02    1.0120000000e+05
    1.7759904265e-02    1.0120000000e+05
    1.7769960687e-02    1.0120000000e+05
    1.7779760063e-02    1.0120000000e+05
    1.7789816484e-02    1.0120000000e+05
    1.7799872905e-02    1.0120000000e+05
    1.7809929326e-02    1.0120000000e+05
    1.7819987610e-02    1.0120000000e+05
    1.7829786986e-02    1.0120000000e+05
    1.7839843407e-02    1.0120000000e+05
    1.7849901691e-02    1.0120000000e+05
    1.7859959975e-02    1.0120000000e+05
    1.7869759351e-02    1.0120000000e+05
    1.7879817635e-02    1.0120000000e+05
    1.7889874056e-02    1.0120000000e+05
    1.7899932340e-02    1.0120000000e+05
    1.7909990624e-02    1.0120000000e+05
    1.7919791862e-02    1.0120000000e+05
    1.7929850146e-02    1.0120000000e+05
    1.7939908430e-02    1.0120000000e+05
    1.7949966714e-02    1.0120000000e+05
    1.7959767953e-02    1.0120000000e+05
    1.7969826236e-02    1.0120000000e+05
    1.7979884520e-02    1.0120000000e+05
    1.7989942804e-02    1.0120000000e+05
    1.7999744043e-02    1.0120000000e+05
    1.8009804189e-02    1.0120000000e+05
    1.8019862473e-02    1.0120000000e+05
    1.8029922619e-02    1.0120000000e+05
    1.8039980903e-02    1.0120000000e+05
    1.8049784005e-02    1.0120000000e+05
    1.8059842288e-02    1.0120000000e+05
    1.8069902435e-02    1.0120000000e+05
    1.8079962581e-02    1.0120000000e+05
    1.8089763820e-02    1.0120000000e+05
    1.8099823967e-02    1.0120000000e+05
    1.8109884113e-02    1.0120000000e+05
    1.8119944260e-02    1.0120000000e+05
    1.8129747361e-02    1.0120000000e+05
    1.8139807507e-02    1.0120000000e+05
    1.8149867654e-02    1.0120000000e+05
    1.8159927800e-02    1.0120000000e+05
    1.8169989809e-02    1.0120000000e+05
    1.8179791048e-02    1.0120000000e+05
    1.8189853057e-02    1.0120000000e+05
    1.8199913204e-02    1.0120000000e+05
    1.8209975213e-02    1.0120000000e+05
    1.8219778314e-02    1.0120000000e+05
    1.8229838461e-02    1.0120000000e+05
    1.8239900470e-02    1.0120000000e+05
    1.8249960616e-02    1.0120000000e+05
    1.8259765580e-02    1.0120000000e+05
    1.8269825727e-02    1.0120000000e+05
    1.8279887736e-02    1.0120000000e+05
    1.8289949745e-02    1.0120000000e+05
    1.8299752846e-02    1.0120000000e+05
    1.8309814855e-02    1.0120000000e+05
    1.8319876865e-02    1.0120000000e+05
    1.8329938874e-02    1.0120000000e+05
    1.8339743838e-02    1.0120000000e+05
    1.8349805847e-02    1.0120000000e+05
    1.8359867856e-02    1.0120000000e+05
    1.8369929865e-02    1.0120000000e+05
    1.8379991874e-02    1.0120000000e+05
    1.8389796838e-02    1.0120000000e+05
    1.8399858847e-02    1.0120000000e+05
    1.8409920856e-02    1.0120000000e+05
    1.8419984728e-02    1.0120000000e+05
    1.8429789692e-02    1.0120000000e+05
    1.8439851701e-02    1.0120000000e+05
    1.8449913710e-02    1.0120000000e+05
    1.8459977582e-02    1.0120000000e+05
    1.8469782546e-02    1.0120000000e+05
    1.8479844555e-02    1.0120000000e+05
    1.8489908427e-02    1.0120000000e+05
    1.8499972299e-02    1.0120000000e+05
    1.8509777263e-02    1.0120000000e+05
    1.8519841135e-02    1.0120000000e+05
    1.8529903144e-02    1.0120000000e+05
    1.8539967015e-02    1.0120000000e+05
    1.8549771979e-02    1.0120000000e+05
    1.8559835851e-02    1.0120000000e+05
    1.8569899723e-02    1.0120000000e+05
    1.8579963595e-02    1.0120000000e+05
    1.8589768559e-02    1.0120000000e+05
    1.8599832430e-02    1.0120000000e+05
    1.8609896302e-02    1.0120000000e+05
    1.8619960174e-02    1.0120000000e+05
    1.8629767001e-02    1.0120000000e+05
    1.8639830872e-02    1.0120000000e+05
    1.8649894744e-02    1.0120000000e+05
    1.8659958616e-02    1.0120000000e+05
    1.8669765443e-02    1.0120000000e+05
    1.8679829314e-02    1.0120000000e+05
    1.8689893186e-02    1.0120000000e+05
    1.8699958920e-02    1.0120000000e+05
    1.8709765747e-02    1.0120000000e+05
    1.8719829619e-02    1.0120000000e+05
    1.8729893491e-02    1.0120000000e+05
    1.8739959225e-02    1.0120000000e+05
    1.8749764189e-02    1.0120000000e+05
    1.8759829924e-02    1.0120000000e+05
    1.8769893795e-02    1.0120000000e+05
    1.8779959530e-02    1.0120000000e+05
    1.8789766356e-02    1.0120000000e+05
    1.8799830228e-02    1.0120000000e+05
    1.8809895962e-02    1.0120000000e+05
    1.8819959834e-02    1.0120000000e+05
    1.8829766661e-02    1.0120000000e+05
    1.8839832395e-02    1.0120000000e+05
    1.8849898130e-02    1.0120000000e+05
    1.8859962001e-02    1.0120000000e+05
    1.8869768828e-02    1.0120000000e+05
    1.8879834563e-02    1.0120000000e+05
    1.8889900297e-02    1.0120000000e+05
    1.8899964169e-02    1.0120000000e+05
    1.8909770995e-02    1.0120000000e+05
    1.8919836730e-02    1.0120000000e+05
    1.8929902464e-02    1.0120000000e+05
    1.8939968199e-02    1.0120000000e+05
    1.8949775025e-02    1.0120000000e+05
    1.8959840760e-02    1.0120000000e+05
    1.8969906494e-02    1.0120000000e+05
    1.8979970366e-02    1.0120000000e+05
    1.8989779055e-02    1.0120000000e+05
    1.8999844790e-02    1.0120000000e+05
    1.9009908661e-02    1.0120000000e+05
    1.9019974396e-02    1.0120000000e+05
    1.9029783085e-02    1.0120000000e+05
    1.9039848819e-02    1.0120000000e+05
    1.9049912691e-02    1.0120000000e+05
    1.9059978426e-02    1.0120000000e+05
    1.9069787115e-02    1.0120000000e+05
    1.9079852849e-02    1.0120000000e+05
    1.9089918584e-02    1.0120000000e+05
    1.9099982455e-02    1.0120000000e+05
    1.9109791145e-02    1.0120000000e+05
    1.9119856879e-02    1.0120000000e+05
    1.9129922614e-02    1.0120000000e+05
    1.9139988348e-02    1.0120000000e+05
    1.9149795175e-02    1.0120000000e+05
    1.9159860909e-02    1.0120000000e+05
    1.9169926643e-02    1.0120000000e+05
    1.9179992378e-02    1.0120000000e+05
    1.9189801067e-02    1.0120000000e+05
    1.9199866802e-02    1.0120000000e+05
    1.9209932536e-02    1.0120000000e+05
    1.9219998270e-02    1.0120000000e+05
    1.9229805097e-02    1.0120000000e+05
    1.9239870831e-02    1.0120000000e+05
    1.9249936566e-02    1.0120000000e+05
    1.9259745255e-02    1.0120000000e+05
    1.9269810989e-02    1.0120000000e+05
    1.9279876724e-02    1.0120000000e+05
    1.9289942458e-02    1.0120000000e+05
    1.9299749285e-02    1.0120000000e+05
    1.9309815019e-02    1.0120000000e+05
    1.9319880754e-02    1.0120000000e+05
    1.9329948351e-02    1.0120000000e+05
    1.9339755177e-02    1.0120000000e+05
    1.9349820912e-02    1.0120000000e+05
    1.9359886646e-02    1.0120000000e+05
    1.9369952381e-02    1.0120000000e+05
    1.9379761070e-02    1.0120000000e+05
    1.9389826804e-02    1.0120000000e+05
    1.9399892539e-02    1.0120000000e+05
    1.9409958273e-02    1.0120000000e+05
    1.9419765100e-02    1.0120000000e+05
    1.9429830834e-02    1.0120000000e+05
    1.9439896569e-02    1.0120000000e+05
[...]
    1.3513989747e-01    1.0124925000e+05
    1.3514974713e-01    1.0124925000e+05
    1.3515987992e-01    1.0124925000e+05
    1.3516971469e-01    1.0124925000e+05
    1.3517986238e-01    1.0124924219e+05
    1.3518999517e-01    1.0124924219e+05
    1.3519982994e-01    1.0124922656e+05
    1.3520997763e-01    1.0124922656e+05
    1.3521981239e-01    1.0124921094e+05
    1.3522996008e-01    1.0124919531e+05
    1.3523979485e-01    1.0124917969e+05
    1.3524992764e-01    1.0124916406e+05
    1.3525977731e-01    1.0124914844e+05
    1.3526991010e-01    1.0124913281e+05
    1.3527974486e-01    1.0124911719e+05
    1.3528989255e-01    1.0124910156e+05
    1.3529972732e-01    1.0124908594e+05
    1.3530986011e-01    1.0124907031e+05
    1.3531970978e-01    1.0124905469e+05
    1.3532984257e-01    1.0124903125e+05
    1.3533999026e-01    1.0124902344e+05
    1.3534982502e-01    1.0124899219e+05
    1.3535995781e-01    1.0124896875e+05
    1.3536980748e-01    1.0124894531e+05
    1.3537994027e-01    1.0124891406e+05
    1.3538977504e-01    1.0124889844e+05
    1.3539992273e-01    1.0124887500e+05
    1.3540975749e-01    1.0124885156e+05
    1.3541989028e-01    1.0124883594e+05
    1.3542973995e-01    1.0124880469e+05
    1.3543987274e-01    1.0124878125e+05
    1.3544972241e-01    1.0124875000e+05
    1.3545985520e-01    1.0124872656e+05
    1.3546998799e-01    1.0124871094e+05
    1.3547983766e-01    1.0124866406e+05
    1.3548997045e-01    1.0124864844e+05
    1.3549980521e-01    1.0124861719e+05
    1.3550995290e-01    1.0124858594e+05
    1.3551978767e-01    1.0124856250e+05
    1.3552992046e-01    1.0124853125e+05
    1.3553977013e-01    1.0124850781e+05
    1.3554990292e-01    1.0124847656e+05
    1.3555975258e-01    1.0124844531e+05
    1.3556988537e-01    1.0124841406e+05
    1.3557972014e-01    1.0124838281e+05
    1.3558986783e-01    1.0124835156e+05
    1.3559970260e-01    1.0124832031e+05
    1.3560983539e-01    1.0124828906e+05
    1.3561998308e-01    1.0124825781e+05
    1.3562981784e-01    1.0124822656e+05
    1.3563995063e-01    1.0124819531e+05
    1.3564980030e-01    1.0124816406e+05
    1.3565993309e-01    1.0124813281e+05
    1.3566978276e-01    1.0124810156e+05
    1.3567991555e-01    1.0124806250e+05
    1.3568975031e-01    1.0124803125e+05
    1.3569989800e-01    1.0124800000e+05
    1.3570973277e-01    1.0124796094e+05
    1.3571986556e-01    1.0124792969e+05
    1.3572971523e-01    1.0124789844e+05
    1.3573984802e-01    1.0124785156e+05
    1.3574998081e-01    1.0124783594e+05
    1.3575983047e-01    1.0124778906e+05
    1.3576996326e-01    1.0124775781e+05
    1.3577981293e-01    1.0124772656e+05
    1.3578994572e-01    1.0124768750e+05
    1.3579978049e-01    1.0124765625e+05
    1.3580992818e-01    1.0124761719e+05
    1.3581976295e-01    1.0124758594e+05
    1.3582989573e-01    1.0124755469e+05
    1.3583974540e-01    1.0124752344e+05
    1.3584987819e-01    1.0124747656e+05
    1.3585971296e-01    1.0124746094e+05
    1.3586986065e-01    1.0124741406e+05
    1.3587999344e-01    1.0124739844e+05
    1.3588984311e-01    1.0124735156e+05
    1.3589997590e-01    1.0124732031e+05
    1.3590981066e-01    1.0124728906e+05
    1.3591995835e-01    1.0124725781e+05
    1.3592979312e-01    1.0124722656e+05
    1.3593992591e-01    1.0124719531e+05
    1.3594977558e-01    1.0124716406e+05
    1.3595990837e-01    1.0124714844e+05
    1.3596974313e-01    1.0124710156e+05
    1.3597989082e-01    1.0124708594e+05
    1.3598972559e-01    1.0124705469e+05
    1.3599987328e-01    1.0124702344e+05
    1.3600970805e-01    1.0124699219e+05
    1.3601984084e-01    1.0124696875e+05
    1.3602998853e-01    1.0124693750e+05
    1.3603982329e-01    1.0124691406e+05
    1.3604995608e-01    1.0124689844e+05
    1.3605980575e-01    1.0124686719e+05
    1.3606993854e-01    1.0124683594e+05
    1.3607978821e-01    1.0124681250e+05
    1.3608992100e-01    1.0124678906e+05
    1.3609975576e-01    1.0124677344e+05
    1.3610990345e-01    1.0124675000e+05
    1.3611973822e-01    1.0124672656e+05
    1.3612987101e-01    1.0124671094e+05
    1.3613972068e-01    1.0124668750e+05
    1.3614985347e-01    1.0124666406e+05
    1.3615998626e-01    1.0124664844e+05
    1.3616983593e-01    1.0124662500e+05
    1.3617996871e-01    1.0124660156e+05
    1.3618981838e-01    1.0124658594e+05
    1.3619995117e-01    1.0124657031e+05
    1.3620978594e-01    1.0124655469e+05
    1.3621993363e-01    1.0124653125e+05
    1.3622976840e-01    1.0124652344e+05
    1.3623990119e-01    1.0124650000e+05
    1.3624975085e-01    1.0124647656e+05
    1.3625988364e-01    1.0124646875e+05
    1.3626971841e-01    1.0124646094e+05
    1.3627986610e-01    1.0124643750e+05
    1.3628970087e-01    1.0124641406e+05
    1.3629984856e-01    1.0124640625e+05
    1.3630998135e-01    1.0124639844e+05
    1.3631981611e-01    1.0124638281e+05
    1.3632996380e-01    1.0124636719e+05
    1.3633979857e-01    1.0124635156e+05
    1.3634993136e-01    1.0124633594e+05
    1.3635978103e-01    1.0124633594e+05
    1.3636991382e-01    1.0124631250e+05
    1.3637974858e-01    1.0124628906e+05
    1.3638989627e-01    1.0124628906e+05
    1.3639973104e-01    1.0124627344e+05
    1.3640987873e-01    1.0124625781e+05
    1.3641971350e-01    1.0124625000e+05
    1.3642984629e-01    1.0124622656e+05
    1.3643999398e-01    1.0124622656e+05
    1.3644982874e-01    1.0124621094e+05
    1.3645996153e-01    1.0124619531e+05
    1.3646981120e-01    1.0124618750e+05
    1.3647994399e-01    1.0124616406e+05
    1.3648977876e-01    1.0124616406e+05
    1.3649992645e-01    1.0124614844e+05
    1.3650976121e-01    1.0124613281e+05
    1.3651990891e-01    1.0124612500e+05
    1.3652974367e-01    1.0124610156e+05
    1.3653987646e-01    1.0124609375e+05
    1.3654972613e-01    1.0124608594e+05
    1.3655985892e-01    1.0124607031e+05
    1.3656999171e-01    1.0124606250e+05
    1.3657984138e-01    1.0124603906e+05
    1.3658997416e-01    1.0124603125e+05
    1.3659980893e-01    1.0124602344e+05
    1.3660995662e-01    1.0124600781e+05
    1.3661979139e-01    1.0124599219e+05
    1.3662993908e-01    1.0124597656e+05
    1.3663977385e-01    1.0124596875e+05
    1.3664990664e-01    1.0124596094e+05
    1.3665975630e-01    1.0124593750e+05
    1.3666988909e-01    1.0124591406e+05
    1.3667972386e-01    1.0124591406e+05
    1.3668987155e-01    1.0124589844e+05
    1.3669970632e-01    1.0124588281e+05
    1.3670983911e-01    1.0124586719e+05
    1.3671998680e-01    1.0124585156e+05
    1.3672982156e-01    1.0124583594e+05
    1.3673996925e-01    1.0124582031e+05
    1.3674980402e-01    1.0124580469e+05
    1.3675993681e-01    1.0124578906e+05
    1.3676978648e-01    1.0124578125e+05
    1.3677991927e-01    1.0124577344e+05
    1.3678975403e-01    1.0124575000e+05
    1.3679990172e-01    1.0124572656e+05
    1.3680973649e-01    1.0124571094e+05
    1.3681988418e-01    1.0124569531e+05
    1.3682971895e-01    1.0124567969e+05
    1.3683985174e-01    1.0124566406e+05
    1.3684999943e-01    1.0124564844e+05
    1.3685983419e-01    1.0124563281e+05
    1.3686996698e-01    1.0124561719e+05
    1.3687981665e-01    1.0124559375e+05
    1.3688994944e-01    1.0124558594e+05
    1.3689978421e-01    1.0124556250e+05
    1.3690993190e-01    1.0124553906e+05
    1.3691976666e-01    1.0124552344e+05
    1.3692991436e-01    1.0124550781e+05
    1.3693974912e-01    1.0124549219e+05
    1.3694988191e-01    1.0124546875e+05
    1.3695973158e-01    1.0124546094e+05
    1.3696986437e-01    1.0124543750e+05
    1.3697969913e-01    1.0124541406e+05
    1.3698984683e-01    1.0124539844e+05
    1.3699997962e-01    1.0124537500e+05
    1.3700981438e-01    1.0124535156e+05
    1.3701996207e-01    1.0124534375e+05
    1.3702979684e-01    1.0124532031e+05
    1.3703994453e-01    1.0124530469e+05
    1.3704977930e-01    1.0124528125e+05
    1.3705991209e-01    1.0124527344e+05
    1.3706976175e-01    1.0124524219e+05
    1.3707989454e-01    1.0124522656e+05
    1.3708972931e-01    1.0124521094e+05
    1.3709987700e-01    1.0124517969e+05
    1.3710971177e-01    1.0124516406e+05
    1.3711984456e-01    1.0124514844e+05
    1.3712999225e-01    1.0124512500e+05
    1.3713982701e-01    1.0124510156e+05
    1.3714997470e-01    1.0124508594e+05
    1.3715980947e-01    1.0124506250e+05
    1.3716994226e-01    1.0124503906e+05
    1.3717979193e-01    1.0124502344e+05
    1.3718992472e-01    1.0124500000e+05
    1.3719975948e-01    1.0124497656e+05
    1.3720990717e-01    1.0124496094e+05
    1.3721974194e-01    1.0124493750e+05
    1.3722987473e-01    1.0124491406e+05
    1.3723972440e-01    1.0124489844e+05
    1.3724985719e-01    1.0124487500e+05
    1.3726000488e-01    1.0124485156e+05
    1.3726983964e-01    1.0124483594e+05
    1.3727997243e-01    1.0124481250e+05
    1.3728982210e-01    1.0124478906e+05
    1.3729995489e-01    1.0124477344e+05
    1.3730978966e-01    1.0124475000e+05
    1.3731993735e-01    1.0124472656e+05
    1.3732977211e-01    1.0124471094e+05
    1.3733990490e-01    1.0124468750e+05
    1.3734975457e-01    1.0124466406e+05
    1.3735988736e-01    1.0124464844e+05
    1.3736973703e-01    1.0124462500e+05
    1.3737986982e-01    1.0124460156e+05
    1.3738970459e-01    1.0124458594e+05
    1.3739985228e-01    1.0124456250e+05
    1.3740998507e-01    1.0124453906e+05
    1.3741981983e-01    1.0124452344e+05
    1.3742996752e-01    1.0124450000e+05
    1.3743980229e-01    1.0124447656e+05
    1.3744994998e-01    1.0124446094e+05
    1.3745978475e-01    1.0124443750e+05
    1.3746991754e-01    1.0124441406e+05
    1.3747976720e-01    1.0124439844e+05
    1.3748989999e-01    1.0124437500e+05
    1.3749973476e-01    1.0124435156e+05
    1.3750988245e-01    1.0124433594e+05
    1.3751971722e-01    1.0124432031e+05
    1.3752985001e-01    1.0124428906e+05
    1.3753999770e-01    1.0124427344e+05
    1.3754983246e-01    1.0124425781e+05
    1.3755998015e-01    1.0124422656e+05
    1.3756981492e-01    1.0124421875e+05
    1.3757994771e-01    1.0124419531e+05
    1.3758979738e-01    1.0124417969e+05
    1.3759993017e-01    1.0124415625e+05
    1.3760976493e-01    1.0124414844e+05
    1.3761991262e-01    1.0124411719e+05
    1.3762974739e-01    1.0124410156e+05
    1.3763988018e-01    1.0124408594e+05
    1.3764972985e-01    1.0124405469e+05
    1.3765986264e-01    1.0124403906e+05
    1.3766971231e-01    1.0124402344e+05
    1.3767984509e-01    1.0124400000e+05
    1.3768997788e-01    1.0124397656e+05
    1.3769982755e-01    1.0124396094e+05
    1.3770996034e-01    1.0124394531e+05
    1.3771979511e-01    1.0124391406e+05
    1.3772994280e-01    1.0124390625e+05
    1.3773977757e-01    1.0124389844e+05
    1.3774991035e-01    1.0124386719e+05
    1.3775976002e-01    1.0124385156e+05
    1.3776989281e-01    1.0124383594e+05
    1.3777974248e-01    1.0124381250e+05
    1.3778987527e-01    1.0124378906e+05
    1.3779971004e-01    1.0124378125e+05
    1.3780985773e-01    1.0124375781e+05
    1.3781999052e-01    1.0124374219e+05
    1.3782982528e-01    1.0124372656e+05
    1.3783997297e-01    1.0124371094e+05
    1.3784980774e-01    1.0124368750e+05
    1.3785994053e-01    1.0124366406e+05
    1.3786979020e-01    1.0124364844e+05
    1.3787992299e-01    1.0124363281e+05
    1.3788977265e-01    1.0124361719e+05
    1.3789990544e-01    1.0124360156e+05
    1.3790974021e-01    1.0124358594e+05
    1.3791988790e-01    1.0124356250e+05
    1.3792972267e-01    1.0124353906e+05
    1.3793985546e-01    1.0124353125e+05
    1.3795000315e-01    1.0124352344e+05
    1.3795983791e-01    1.0124350000e+05
    1.3796998560e-01    1.0124347656e+05
    1.3797982037e-01    1.0124346094e+05
    1.3798995316e-01    1.0124344531e+05
    1.3799980283e-01    1.0124342969e+05
    1.3800993562e-01    1.0124341406e+05
    1.3801977038e-01    1.0124339844e+05
    1.3802991807e-01    1.0124338281e+05
    1.3803975284e-01    1.0124336719e+05
    1.3804988563e-01    1.0124335156e+05
    1.3805973530e-01    1.0124333594e+05
    1.3806986809e-01    1.0124332031e+05
    1.3807971776e-01    1.0124330469e+05
    1.3808985054e-01    1.0124328906e+05
    1.3809998333e-01    1.0124327344e+05
    1.3810983300e-01    1.0124325781e+05
    1.3811996579e-01    1.0124324219e+05
    1.3812980056e-01    1.0124322656e+05
    1.3813994825e-01    1.0124321094e+05
    1.3814978302e-01    1.0124319531e+05
    1.3815991580e-01    1.0124317969e+05
    1.3816976547e-01    1.0124316406e+05
    1.3817989826e-01    1.0124314844e+05
    1.3818974793e-01    1.0124313281e+05
    1.3819988072e-01    1.0124311719e+05
    1.3820971549e-01    1.0124310156e+05
    1.3821986318e-01    1.0124308594e+05
    1.3822999597e-01    1.0124307031e+05
    1.3823983073e-01    1.0124305469e+05
    1.3824997842e-01    1.0124303906e+05
    1.3825981319e-01    1.0124302344e+05
    1.3826994598e-01    1.0124300781e+05
    1.3827979565e-01    1.0124300000e+05
    1.3828992844e-01    1.0124297656e+05
    1.3829977810e-01    1.0124296875e+05
    1.3830991089e-01    1.0124296094e+05
    1.3831974566e-01    1.0124293750e+05
    1.3832989335e-01    1.0124291406e+05
    1.3833972812e-01    1.0124290625e+05
    1.3834986091e-01    1.0124289844e+05
    1.3835971057e-01    1.0124288281e+05
    1.3836984336e-01    1.0124286719e+05
    1.3837999105e-01    1.0124285156e+05
    1.3838982582e-01    1.0124283594e+05
    1.3839995861e-01    1.0124282031e+05
    1.3840980828e-01    1.0124280469e+05
    1.3841994107e-01    1.0124278906e+05
    1.3842977583e-01    1.0124278125e+05
    1.3843992352e-01    1.0124277344e+05
    1.3844975829e-01    1.0124275000e+05
    1.3845989108e-01    1.0124272656e+05
    1.3846974075e-01    1.0124272656e+05
    1.3847987354e-01    1.0124271094e+05
    1.3848972321e-01    1.0124269531e+05
    1.3849985600e-01    1.0124267969e+05
    1.3850998878e-01    1.0124266406e+05
    1.3851983845e-01    1.0124264844e+05
    1.3852997124e-01    1.0124264844e+05
    1.3853980601e-01    1.0124262500e+05
    1.3854995370e-01    1.0124260156e+05
    1.3855978847e-01    1.0124259375e+05
    1.3856992126e-01    1.0124258594e+05
    1.3857977092e-01    1.0124257031e+05
    1.3858990371e-01    1.0124255469e+05
    1.3859975338e-01    1.0124253906e+05
    1.3860988617e-01    1.0124252344e+05
    1.3861972094e-01    1.0124252344e+05
    1.3862986863e-01    1.0124250000e+05
    1.3863970339e-01    1.0124247656e+05
    1.3864983618e-01    1.0124246875e+05
    1.3865998387e-01    1.0124246094e+05
    1.3866981864e-01    1.0124244531e+05
    1.3867995143e-01    1.0124242969e+05
    1.3868980110e-01    1.0124241406e+05
    1.3869993389e-01    1.0124239844e+05
    1.3870978355e-01    1.0124239844e+05
    1.3871991634e-01    1.0124237500e+05
    1.3872975111e-01    1.0124235156e+05
    1.3873989880e-01    1.0124234375e+05
    1.3874973357e-01    1.0124233594e+05
    1.3875986636e-01    1.0124232031e+05
    1.3876971602e-01    1.0124230469e+05
    1.3877984881e-01    1.0124228906e+05
    1.3878999650e-01    1.0124227344e+05
    1.3879983127e-01    1.0124225781e+05
    1.3880996406e-01    1.0124225000e+05
    1.3881981373e-01    1.0124222656e+05
    1.3882994652e-01    1.0124221875e+05
    1.3883978128e-01    1.0124221094e+05
    1.3884992898e-01    1.0124218750e+05
    1.3885976374e-01    1.0124217969e+05
    1.3886989653e-01    1.0124216406e+05
    1.3887974620e-01    1.0124214844e+05
    1.3888987899e-01    1.0124213281e+05
    1.3889972866e-01    1.0124212500e+05
    1.3890986145e-01    1.0124210156e+05
    1.3891999424e-01    1.0124209375e+05
    1.3892984390e-01    1.0124208594e+05
    1.3893997669e-01    1.0124206250e+05
    1.3894981146e-01    1.0124205469e+05
    1.3895995915e-01    1.0124203906e+05
    1.3896979392e-01    1.0124202344e+05
    1.3897992671e-01    1.0124200781e+05
    1.3898977637e-01    1.0124199219e+05
    1.3899990916e-01    1.0124197656e+05
    1.3900975883e-01    1.0124196875e+05
    1.3901989162e-01    1.0124196094e+05
    1.3902972639e-01    1.0124193750e+05
    1.3903987408e-01    1.0124192969e+05
    1.3904970884e-01    1.0124191406e+05
    1.3905984163e-01    1.0124189844e+05
    1.3906998932e-01    1.0124188281e+05
    1.3907982409e-01    1.0124187500e+05
    1.3908997178e-01    1.0124185156e+05
    1.3909980655e-01    1.0124184375e+05
    1.3910993934e-01    1.0124183594e+05
    1.3911978900e-01    1.0124182031e+05
    1.3912992179e-01    1.0124180469e+05
    1.3913975656e-01    1.0124178906e+05
    1.3914990425e-01    1.0124177344e+05
    1.3915973902e-01    1.0124177344e+05
    1.3916987181e-01    1.0124175000e+05
    1.3917972147e-01    1.0124172656e+05
    1.3918985426e-01    1.0124172656e+05
    1.3920000196e-01    1.0124171094e+05
    1.3920983672e-01    1.0124169531e+05
    1.3921996951e-01    1.0124168750e+05
    1.3922981918e-01    1.0124166406e+05
    1.3923995197e-01    1.0124165625e+05
    1.3924978673e-01    1.0124164844e+05
    1.3925993443e-01    1.0124163281e+05
    1.3926976919e-01    1.0124161719e+05
    1.3927990198e-01    1.0124160156e+05
    1.3928975165e-01    1.0124159375e+05
    1.3929988444e-01    1.0124158594e+05
    1.3930973411e-01    1.0124157031e+05
    1.3931986690e-01    1.0124155469e+05
    1.3932970166e-01    1.0124153906e+05
    1.3933984935e-01    1.0124153125e+05
    1.3934998214e-01    1.0124152344e+05
    1.3935981691e-01    1.0124150781e+05
    1.3936996460e-01    1.0124149219e+05
    1.3937979937e-01    1.0124147656e+05
    1.3938993216e-01    1.0124146875e+05
    1.3939978182e-01    1.0124146094e+05
    1.3940991461e-01    1.0124144531e+05
    1.3941976428e-01    1.0124143750e+05
    1.3942989707e-01    1.0124141406e+05
    1.3943973184e-01    1.0124141406e+05
    1.3944987953e-01    1.0124139844e+05
    1.3945971429e-01    1.0124138281e+05
    1.3946984708e-01    1.0124137500e+05
    1.3947999477e-01    1.0124135156e+05
    1.3948982954e-01    1.0124135156e+05
    1.3949997723e-01    1.0124133594e+05
    1.3950981200e-01    1.0124133594e+05
    1.3951994479e-01    1.0124131250e+05
    1.3952979445e-01    1.0124128906e+05
    1.3953992724e-01    1.0124128906e+05
    1.3954976201e-01    1.0124127344e+05
    1.3955990970e-01    1.0124127344e+05
    1.3956974447e-01    1.0124125000e+05
    1.3957987726e-01    1.0124124219e+05
    1.3958972692e-01    1.0124122656e+05
    1.3959985971e-01    1.0124121875e+05
    1.3960970938e-01    1.0124121094e+05
    1.3961984217e-01    1.0124119531e+05
    1.3962997496e-01    1.0124117969e+05
    1.3963982463e-01    1.0124116406e+05
    1.3964995742e-01    1.0124115625e+05
    1.3965979218e-01    1.0124114844e+05
    1.3966993988e-01    1.0124113281e+05
    1.3967977464e-01    1.0124112500e+05
    1.3968990743e-01    1.0124110156e+05
    1.3969975710e-01    1.0124110156e+05
    1.3970988989e-01    1.0124108594e+05
    1.3971973956e-01    1.0124108594e+05
    1.3972987235e-01    1.0124106250e+05
    1.3973970711e-01    1.0124105469e+05
    1.3974985480e-01    1.0124103906e+05
    1.3975998759e-01    1.0124103125e+05
    1.3976982236e-01    1.0124102344e+05
    1.3977997005e-01    1.0124100781e+05
    1.3978980482e-01    1.0124100000e+05
    1.3979995251e-01    1.0124097656e+05
    1.3980978727e-01    1.0124097656e+05
    1.3981992006e-01    1.0124096094e+05
    1.3982976973e-01    1.0124096094e+05
    1.3983990252e-01    1.0124093750e+05
    1.3984973729e-01    1.0124092969e+05
    1.3985988498e-01    1.0124091406e+05
    1.3986971974e-01    1.0124090625e+05
    1.3987985253e-01    1.0124089844e+05
    1.3989000022e-01    1.0124088281e+05
    1.3989983499e-01    1.0124086719e+05
    1.3990998268e-01    1.0124085156e+05
    1.3991981745e-01    1.0124084375e+05
    1.3992995024e-01    1.0124083594e+05
    1.3993979990e-01    1.0124082031e+05
    1.3994993269e-01    1.0124081250e+05
    1.3995976746e-01    1.0124080469e+05
    1.3996991515e-01    1.0124078906e+05
    1.3997974992e-01    1.0124078125e+05
    1.3998988271e-01    1.0124077344e+05
    1.3999973238e-01    1.0124075781e+05
endcurve
