Curveplot
LS-DYNA keyword deck by LS-PrePost                          
Time
Pressure
Defined Connection
Pressure @ 13 #pts=12001
* Minval=     8.5199109375e+04 at time=         0.0200297516
* Maxval=     1.7738506250e+05 at time=         0.0096197044
    0.0000000000e+00    1.0120000000e+05
    9.9485323517e-06    1.0120000000e+05
    1.9979865101e-05    1.0120000000e+05
    2.9986638765e-05    1.0120000000e+05
    3.9979258872e-05    1.0120000000e+05
    4.9993752327e-05    1.0120000000e+05
    5.9953603341e-05    1.0120000000e+05
    6.9994021032e-05    1.0120000000e+05
    7.9936522525e-05    1.0120000000e+05
    8.9989589469e-05    1.0120000000e+05
    9.9929937278e-05    1.0120000000e+05
    1.0995388584e-04    1.0120000000e+05
    1.1997983529e-04    1.0120000000e+05
    1.2999596947e-04    1.0120000000e+05
    1.3999057410e-04    1.0120000000e+05
    1.4995166566e-04    1.0120000000e+05
    1.5994771093e-04    1.0120000000e+05
    1.6997136117e-04    1.0120000000e+05
    1.7993104120e-04    1.0120000000e+05
    1.8998420273e-04    1.0120000000e+05
    1.9995408366e-04    1.0120000000e+05
    2.0991609199e-04    1.0120000000e+05
    2.1995080169e-04    1.0120000000e+05
    2.2996308689e-04    1.0120000000e+05
    2.3994418734e-04    1.0120000000e+05
    2.4997859146e-04    1.0120000000e+05
    2.5996408658e-04    1.0120000000e+05
    2.6997848181e-04    1.0120000000e+05
    2.7991313254e-04    1.0120000000e+05
    2.8995954199e-04    1.0120000000e+05
    2.9992053169e-04    1.0120000000e+05
    3.0999159208e-04    1.0120000000e+05
    3.1997129554e-04    1.0120000000e+05
    3.2995743095e-04    1.0120000000e+05
    3.3994793193e-04    1.0120000000e+05
    3.4994084854e-04    1.0120000000e+05
    3.5993449274e-04    1.0120000000e+05
    3.6992644891e-04    1.0120000000e+05
    3.7991517456e-04    1.0120000000e+05
    3.8990128087e-04    1.0120000000e+05
    3.9999163710e-04    1.0120000000e+05
    4.0996522876e-04    1.0120000000e+05
    4.1992650949e-04    1.0120000000e+05
    4.2999212747e-04    1.0120000000e+05
    4.3993289000e-04    1.0120000000e+05
    4.4997449731e-04    1.0120000000e+05
    4.5988423517e-04    1.0120000000e+05
    4.6989115071e-04    1.0120000000e+05
    4.7988141887e-04    1.0120000000e+05
    4.8997194972e-04    1.0120000000e+05
    4.9992057029e-04    1.0120000000e+05
    5.0996785285e-04    1.0120000000e+05
    5.1999121206e-04    1.0120000000e+05
    5.2998616593e-04    1.0120000000e+05
    5.3995539201e-04    1.0120000000e+05
    5.4989446653e-04    1.0120000000e+05
    5.5993068963e-04    1.0120000000e+05
    5.6993513135e-04    1.0120000000e+05
    5.7990552159e-04    1.0120000000e+05
    5.8997032465e-04    1.0120000000e+05
    5.9986743145e-04    1.0120000000e+05
    6.0999515699e-04    1.0120000000e+05
    6.1994814314e-04    1.0120000000e+05
    6.2999658985e-04    1.0120000000e+05
    6.3986278838e-04    1.0120000000e+05
    6.4996327274e-04    1.0120000000e+05
    6.5987126436e-04    1.0120000000e+05
    6.6987733589e-04    1.0120000000e+05
    6.7997933365e-04    1.0120000000e+05
    6.8988517160e-04    1.0120000000e+05
    6.9988367613e-04    1.0120000000e+05
    7.0997612784e-04    1.0120000000e+05
    7.1986304829e-04    1.0120000000e+05
    7.2999327676e-04    1.0120000000e+05
    7.3991238605e-04    1.0120000000e+05
    7.4991909787e-04    1.0120000000e+05
    7.5986614684e-04    1.0120000000e+05
    7.6990417438e-04    1.0120000000e+05
    7.7987572877e-04    1.0120000000e+05
    7.8993820352e-04    1.0120000000e+05
    7.9993094550e-04    1.0120000000e+05
    8.0985104432e-04    1.0120000000e+05
    8.1986008445e-04    1.0120000000e+05
    8.2995952107e-04    1.0120000000e+05
    8.3998258924e-04    1.0120000000e+05
    8.4992614575e-04    1.0120000000e+05
    8.5995404515e-04    1.0120000000e+05
    8.6990068667e-04    1.0120000000e+05
    8.7993603665e-04    1.0120000000e+05
    8.8988454081e-04    1.0120000000e+05
    8.9991936693e-04    1.0120000000e+05
    9.0986362193e-04    1.0120000000e+05
    9.1989367502e-04    1.0120000000e+05
    9.2982925707e-04    1.0120000000e+05
    9.3984993873e-04    1.0120000000e+05
    9.4995700056e-04    1.0120000000e+05
    9.5996522577e-04    1.0120000000e+05
    9.6987141296e-04    1.0120000000e+05
    9.7986089531e-04    1.0120000000e+05
    9.8993489519e-04    1.0120000000e+05
    9.9990225863e-04    1.0120000000e+05
    1.0099532083e-03    1.0120000000e+05
    1.0198932141e-03    1.0120000000e+05
    1.0299157584e-03    1.0120000000e+05
    1.0398140876e-03    1.0120000000e+05
    1.0498022893e-03    1.0120000000e+05
    1.0598743102e-03    1.0120000000e+05
    1.0698265396e-03    1.0120000000e+05
    1.0798607254e-03    1.0120000000e+05
    1.0899779154e-03    1.0120000000e+05
    1.0999704245e-03    1.0120000000e+05
    1.1098345276e-03    1.0120000000e+05
    1.1199906003e-03    1.0120000000e+05
    1.1298032477e-03    1.0120000000e+05
    1.1399103096e-03    1.0120000000e+05
    1.1498834938e-03    1.0120000000e+05
    1.1599380523e-03    1.0120000000e+05
    1.1698536109e-03    1.0120000000e+05
    1.1798492633e-03    1.0120000000e+05
    1.1899259407e-03    1.0120000000e+05
    1.1998587288e-03    1.0120000000e+05
    1.2098723091e-03    1.0120000000e+05
    1.2199662160e-03    1.0120000000e+05
    1.2299119262e-03    1.0120000000e+05
    1.2399362167e-03    1.0120000000e+05
    1.2498064898e-03    1.0120000000e+05
    1.2599943439e-03    1.0120000000e+05
    1.2697873171e-03    1.0120000000e+05
    1.2798995012e-03    1.0120000000e+05
    1.2898501009e-03    1.0120000000e+05
    1.2998798629e-03    1.0120000000e+05
    1.3099918142e-03    1.0120000000e+05
    1.3199377572e-03    1.0120000000e+05
    1.3299625134e-03    1.0120000000e+05
    1.3398159062e-03    1.0120000000e+05
    1.3497478794e-03    1.0120000000e+05
    1.3597594807e-03    1.0120000000e+05
    1.3698522234e-03    1.0120000000e+05
    1.3797658030e-03    1.0120000000e+05
    1.3897592435e-03    1.0120000000e+05
    1.3998337090e-03    1.0120000000e+05
    1.4099904802e-03    1.0120000000e+05
    1.4199602883e-03    1.0120000000e+05
    1.4297389425e-03    1.0120000000e+05
    1.4398696367e-03    1.0120000000e+05
    1.4498074306e-03    1.0120000000e+05
    1.4598255511e-03    1.0120000000e+05
    1.4699253952e-03    1.0120000000e+05
    1.4798248885e-03    1.0120000000e+05
    1.4898047084e-03    1.0120000000e+05
    1.4998661354e-03    1.0120000000e+05
    1.5097189462e-03    1.0120000000e+05
    1.5199360205e-03    1.0120000000e+05
    1.5299529769e-03    1.0120000000e+05
    1.5397543320e-03    1.0120000000e+05
    1.5499362489e-03    1.0120000000e+05
    1.5599002363e-03    1.0120000000e+05
    1.5699471114e-03    1.0120000000e+05
    1.5797693050e-03    1.0120000000e+05
    1.5899824211e-03    1.0120000000e+05
    1.5999694588e-03    1.0120000000e+05
    1.6097238986e-03    1.0120000000e+05
    1.6198765952e-03    1.0120000000e+05
    1.6297944821e-03    1.0120000000e+05
    1.6397954896e-03    1.0120000000e+05
    1.6498807818e-03    1.0120000000e+05
    1.6597225331e-03    1.0120000000e+05
    1.6699788393e-03    1.0120000000e+05
    1.6799892765e-03    1.0120000000e+05
    1.6897475580e-03    1.0120000000e+05
    1.6999277286e-03    1.0120000000e+05
    1.7098532990e-03    1.0120000000e+05
    1.7198633868e-03    1.0120000000e+05
    1.7299542669e-03    1.0120000000e+05
    1.7397865886e-03    1.0120000000e+05
    1.7497027293e-03    1.0120000000e+05
    1.7597045517e-03    1.0120000000e+05
    1.7697938019e-03    1.0120000000e+05
    1.7799724592e-03    1.0120000000e+05
    1.7898739316e-03    1.0120000000e+05
    1.7998619005e-03    1.0120000000e+05
    1.8099385779e-03    1.0120000000e+05
    1.8197272439e-03    1.0120000000e+05
    1.8299830845e-03    1.0120000000e+05
    1.8399483524e-03    1.0120000000e+05
    1.8496145494e-03    1.0120000000e+05
    1.8597570015e-03    1.0120000000e+05
    1.8699899083e-03    1.0120000000e+05
    1.8799207173e-03    1.0120000000e+05
    1.8899433780e-03    1.0120000000e+05
    1.8996521831e-03    1.0120000000e+05
    1.9098578487e-03    1.0120000000e+05
    1.9197467482e-03    1.0120000000e+05
    1.9297265681e-03    1.0120000000e+05
    1.9397998694e-03    1.0120000000e+05
    1.9499686314e-03    1.0120000000e+05
    1.9598058425e-03    1.0120000000e+05
    1.9697342068e-03    1.0120000000e+05
    1.9797342829e-03    1.0120000000e+05
    1.9897872116e-03    1.0120000000e+05
    1.9998836797e-03    1.0120000000e+05
    2.0095752552e-03    1.0120000000e+05
    2.0197499543e-03    1.0120000000e+05
    2.0299281459e-03    1.0120000000e+05
    2.0396781620e-03    1.0120000000e+05
    2.0499236416e-03    1.0120000000e+05
    2.0596827380e-03    1.0120000000e+05
    2.0699228626e-03    1.0120000000e+05
    2.0796728786e-03    1.0120000000e+05
    2.0898957737e-03    1.0120000000e+05
    2.0996793173e-03    1.0120000000e+05
    2.1098873112e-03    1.0120000000e+05
    2.1196198650e-03    1.0120000000e+05
    2.1298381034e-03    1.0120000000e+05
    2.1395734511e-03    1.0120000000e+05
    2.1497858688e-03    1.0120000000e+05
    2.1599507891e-03    1.0120000000e+05
    2.1697229240e-03    1.0120000000e+05
    2.1798771340e-03    1.0120000000e+05
    2.1896150429e-03    1.0120000000e+05
    2.1998209413e-03    1.0120000000e+05
    2.2099730559e-03    1.0120000000e+05
    2.2196844220e-03    1.0120000000e+05
    2.2299354896e-03    1.0120000000e+05
    2.2396873683e-03    1.0120000000e+05
    2.2499440238e-03    1.0120000000e+05
    2.2597883362e-03    1.0120000000e+05
    2.2696659435e-03    1.0120000000e+05
    2.2799638100e-03    1.0120000000e+05
    2.2898719180e-03    1.0120000000e+05
    2.2997823544e-03    1.0120000000e+05
    2.3097023368e-03    1.0120000000e+05
    2.3196344264e-03    1.0120000000e+05
    2.3299991153e-03    1.0120000000e+05
    2.3399356287e-03    1.0120000000e+05
    2.3498779628e-03    1.0120000000e+05
    2.3597900290e-03    1.0120000000e+05
    2.3696762510e-03    1.0120000000e+05
    2.3795510642e-03    1.0120000000e+05
    2.3898356594e-03    1.0120000000e+05
    2.3996313103e-03    1.0120000000e+05
    2.4098202121e-03    1.0120000000e+05
    2.4199455511e-03    1.0120000000e+05
    2.4299914949e-03    1.0120000000e+05
    2.4399610702e-03    1.0120000000e+05
    2.4498538114e-03    1.0120000000e+05
    2.4596713483e-03    1.0120000000e+05
    2.4698371999e-03    1.0120000000e+05
    2.4799234234e-03    1.0120000000e+05
    2.4899311829e-03    1.0120000000e+05
    2.4998616427e-03    1.0120000000e+05
    2.5097159669e-03    1.0120000000e+05
    2.5199009106e-03    1.0120000000e+05
    2.5296029635e-03    1.0120000000e+05
    2.5396312121e-03    1.0120000000e+05
    2.5499779731e-03    1.0120000000e+05
    2.5598481297e-03    1.0120000000e+05
    2.5696421508e-03    1.0120000000e+05
    2.5797483977e-03    1.0120000000e+05
    2.5897745509e-03    1.0120000000e+05
    2.5997210760e-03    1.0120000000e+05
    2.6099672541e-03    1.0120000000e+05
    2.6197549887e-03    1.0120000000e+05
    2.6298384182e-03    1.0120000000e+05
    2.6398398913e-03    1.0120000000e+05
    2.6497610379e-03    1.0120000000e+05
    2.6599653065e-03    1.0120000000e+05
    2.6697246358e-03    1.0120000000e+05
    2.6797624305e-03    1.0120000000e+05
    2.6897173375e-03    1.0120000000e+05
    2.6999399997e-03    1.0120000000e+05
    2.7097275015e-03    1.0120000000e+05
    2.7197788004e-03    1.0120000000e+05
    2.7297441848e-03    1.0120000000e+05
    2.7399635874e-03    1.0120000000e+05
    2.7497555129e-03    1.0120000000e+05
    2.7597968001e-03    1.0120000000e+05
    2.7697484475e-03    1.0120000000e+05
    2.7799380478e-03    1.0120000000e+05
    2.7897097170e-03    1.0120000000e+05
    2.7997149155e-03    1.0120000000e+05
    2.8099452611e-03    1.0120000000e+05
    2.8197618667e-03    1.0120000000e+05
    2.8297984973e-03    1.0120000000e+05
    2.8397368733e-03    1.0120000000e+05
    2.8498840984e-03    1.0120000000e+05
    2.8599281795e-03    1.0120000000e+05
    2.8698695824e-03    1.0120000000e+05
    2.8797083069e-03    1.0120000000e+05
    2.8897384182e-03    1.0120000000e+05
    2.8999501374e-03    1.0120000000e+05
    2.9097599909e-03    1.0120000000e+05
    2.9197451659e-03    1.0120000000e+05
    2.9298963491e-03    1.0120000000e+05
    2.9399259947e-03    1.0120000000e+05
    2.9498341028e-03    1.0120000000e+05
    2.9598902911e-03    1.0120000000e+05
    2.9698172584e-03    1.0120000000e+05
    2.9798776377e-03    1.0120000000e+05
    2.9898004141e-03    1.0120000000e+05
    2.9998407699e-03    1.0120000000e+05
    3.0099861324e-03    1.0120000000e+05
    3.0199761968e-03    1.0120000000e+05
    3.0298093334e-03    1.0120000000e+05
    3.0399633106e-03    1.0120000000e+05
    3.0499403365e-03    1.0120000000e+05
    3.0599692836e-03    1.0120000000e+05
    3.0698073097e-03    1.0120000000e+05
    3.0798949301e-03    1.0120000000e+05
    3.0899820849e-03    1.0120000000e+05
    3.0998371076e-03    1.0120000000e+05
    3.1098665204e-03    1.0120000000e+05
    3.1198293436e-03    1.0120000000e+05
    3.1298927497e-03    1.0120000000e+05
    3.1398185529e-03    1.0120000000e+05
    3.1499315519e-03    1.0120000000e+05
    3.1599695794e-03    1.0120000000e+05
    3.1698518433e-03    1.0120000000e+05
    3.1799355056e-03    1.0120000000e+05
    3.1899770256e-03    1.0120000000e+05
    3.1999913044e-03    1.0120000000e+05
    3.2099895179e-03    1.0120000000e+05
    3.2199325506e-03    1.0120000000e+05
    3.2299088780e-03    1.0120000000e+05
    3.2399059273e-03    1.0120000000e+05
    3.2498526853e-03    1.0120000000e+05
    3.2599547412e-03    1.0120000000e+05
    3.2698365394e-03    1.0120000000e+05
    3.2799369656e-03    1.0120000000e+05
    3.2899780199e-03    1.0120000000e+05
    3.2999571413e-03    1.0120000000e+05
    3.3099779394e-03    1.0120000000e+05
    3.3199233003e-03    1.0120000000e+05
    3.3299499191e-03    1.0120000000e+05
    3.3399285749e-03    1.0120000000e+05
    3.3498639241e-03    1.0120000000e+05
    3.3598537557e-03    1.0120000000e+05
    3.3699835185e-03    1.0120000000e+05
    3.3798166551e-03    1.0120000000e+05
    3.3899319824e-03    1.0120000000e+05
    3.3999437001e-03    1.0120000000e+05
    3.4098161850e-03    1.0120000000e+05
    3.4199836664e-03    1.0120000000e+05
    3.4297958482e-03    1.0120000000e+05
    3.4399128053e-03    1.0120000000e+05
    3.4498733003e-03    1.0120000000e+05
    3.4599059727e-03    1.0120000000e+05
    3.4699775279e-03    1.0120000000e+05
    3.4799224231e-03    1.0120000000e+05
    3.4899136517e-03    1.0120000000e+05
    3.4999481868e-03    1.0120000000e+05
    3.5098411608e-03    1.0120000000e+05
    3.5199797712e-03    1.0120000000e+05
    3.5299647134e-03    1.0120000000e+05
    3.5399901681e-03    1.0120000000e+05
    3.5498456564e-03    1.0120000000e+05
    3.5599588882e-03    1.0120000000e+05
    3.5698984284e-03    1.0120000000e+05
    3.5798887257e-03    1.0120000000e+05
    3.5899076611e-03    1.0120000000e+05
    3.5999766551e-03    1.0120000000e+05
    3.6098540295e-03    1.0120000000e+05
    3.6199868191e-03    1.0120000000e+05
    3.6299610510e-03    1.0120000000e+05
    3.6399215460e-03    1.0120000000e+05
    3.6499751732e-03    1.0120000000e+05
    3.6597871222e-03    1.0120000000e+05
    3.6698842887e-03    1.0120000000e+05
    3.6797982175e-03    1.0120000000e+05
    3.6899349652e-03    1.0120000000e+05
    3.6999238655e-03    1.0120000000e+05
    3.7099048495e-03    1.0120000000e+05
    3.7199158687e-03    1.0120000000e+05
    3.7299969699e-03    1.0120000000e+05
    3.7398140412e-03    1.0120000000e+05
    3.7499484606e-03    1.0120000000e+05
    3.7598502822e-03    1.0120000000e+05
    3.7699895911e-03    1.0120000000e+05
    3.7799899001e-03    1.0120000000e+05
    3.7899394520e-03    1.0120000000e+05
    3.7999474443e-03    1.0120000000e+05
    3.8097691722e-03    1.0120000000e+05
    3.8197906688e-03    1.0120000000e+05
    3.8298959844e-03    1.0120000000e+05
    3.8397691678e-03    1.0120000000e+05
    3.8498805370e-03    1.0120000000e+05
    3.8598149549e-03    1.0120000000e+05
    3.8699931465e-03    1.0120000000e+05
    3.8799471222e-03    1.0120000000e+05
    3.8899383508e-03    1.0120000000e+05
    3.8999400567e-03    1.0120000000e+05
    3.9099655114e-03    1.0120000000e+05
    3.9197644219e-03    1.0120000000e+05
    3.9298254997e-03    1.0120000000e+05
    3.9399052039e-03    1.0120000000e+05
    3.9499974810e-03    1.0120000000e+05
    3.9598578587e-03    1.0120000000e+05
    3.9699804038e-03    1.0120000000e+05
    3.9798640646e-03    1.0120000000e+05
    3.9897556417e-03    1.0120000000e+05
    3.9999037981e-03    1.0120000000e+05
    4.0098093450e-03    1.0120000000e+05
    4.0199663490e-03    1.0120000000e+05
    4.0298788808e-03    1.0120000000e+05
    4.0397923440e-03    1.0120000000e+05
    4.0499544702e-03    1.0120000000e+05
    4.0598683991e-03    1.0120000000e+05
    4.0697823279e-03    1.0120000000e+05
    4.0799435228e-03    1.0120000000e+05
    4.0898565203e-03    1.0120000000e+05
    4.0997685865e-03    1.0120000000e+05
    4.1099274531e-03    1.0120000000e+05
    4.1198371910e-03    1.0120000000e+05
    4.1299932636e-03    1.0120000000e+05
    4.1399002075e-03    1.0120000000e+05
    4.1498066857e-03    1.0120000000e+05
    4.1599618271e-03    1.0120000000e+05
    4.1698748246e-03    1.0120000000e+05
    4.1797892191e-03    1.0120000000e+05
    4.1899550706e-03    1.0120000000e+05
    4.1998801753e-03    1.0120000000e+05
    4.2098104022e-03    1.0120000000e+05
    4.2199944146e-03    1.0120000000e+05
    4.2299400084e-03    1.0120000000e+05
    4.2398925871e-03    1.0120000000e+05
    4.2498544790e-03    1.0120000000e+05
    4.2598238215e-03    1.0120000000e+05
    4.2698020115e-03    1.0120000000e+05
    4.2797876522e-03    1.0120000000e+05
    4.2897807434e-03    1.0120000000e+05
    4.2997822165e-03    1.0120000000e+05
    4.3097943999e-03    1.0120000000e+05
    4.3198149651e-03    1.0120000000e+05
    4.3298434466e-03    1.0120000000e+05
    4.3398840353e-03    1.0120000000e+05
    4.3499297462e-03    1.0120000000e+05
    4.3599833734e-03    1.0120000000e+05
    4.3697920628e-03    1.0120000000e+05
    4.3798671104e-03    1.0120000000e+05
    4.3899421580e-03    1.0120000000e+05
    4.3997815810e-03    1.0120000000e+05
    4.4098771177e-03    1.0120000000e+05
    4.4199856929e-03    1.0120000000e+05
    4.4298372231e-03    1.0120000000e+05
    4.4399611652e-03    1.0120000000e+05
    4.4498331845e-03    1.0120000000e+05
    4.4599776156e-03    1.0120000000e+05
    4.4698626734e-03    1.0120000000e+05
    4.4797672890e-03    1.0120000000e+05
    4.4899219647e-03    1.0120000000e+05
    4.4998428784e-03    1.0120000000e+05
    4.5097512193e-03    1.0120000000e+05
    4.5199436136e-03    1.0120000000e+05
    4.5298733748e-03    1.0120000000e+05
    4.5398268849e-03    1.0120000000e+05
    4.5497673564e-03    1.0120000000e+05
    4.5599956065e-03    1.0120000000e+05
    4.5699505135e-03    1.0120000000e+05
    4.5799347572e-03    1.0120000000e+05
    4.5899068937e-03    1.0120000000e+05
    4.5999065042e-03    1.0120000000e+05
    4.6098860912e-03    1.0120000000e+05
    4.6199006028e-03    1.0120000000e+05
    4.6299034730e-03    1.0120000000e+05
    4.6399291605e-03    1.0120000000e+05
    4.6499404125e-03    1.0120000000e+05
    4.6599796042e-03    1.0120000000e+05
    4.6697510406e-03    1.0120000000e+05
    4.6798028052e-03    1.0120000000e+05
    4.6898466535e-03    1.0120000000e+05
    4.6999119222e-03    1.0120000000e+05
    4.7099720687e-03    1.0120000000e+05
    4.7197919339e-03    1.0120000000e+05
    4.7298646532e-03    1.0120000000e+05
    4.7399494797e-03    1.0120000000e+05
    4.7497777268e-03    1.0120000000e+05
    4.7598793171e-03    1.0120000000e+05
    4.7699771821e-03    1.0120000000e+05
    4.7798282467e-03    1.0120000000e+05
    4.7899414785e-03    1.0120000000e+05
    4.7998041846e-03    1.0120000000e+05
    4.8099267296e-03    1.0120000000e+05
    4.8197996803e-03    1.0120000000e+05
    4.8299343325e-03    1.0120000000e+05
    4.8398151994e-03    1.0120000000e+05
    4.8499642871e-03    1.0120000000e+05
    4.8598595895e-03    1.0120000000e+05
    4.8697576858e-03    1.0120000000e+05
    4.8799193464e-03    1.0120000000e+05
    4.8898258246e-03    1.0120000000e+05
    4.8999991268e-03    1.0120000000e+05
    4.9099191092e-03    1.0120000000e+05
    4.9198446795e-03    1.0120000000e+05
    4.9297730438e-03    1.0120000000e+05
    4.9399593845e-03    1.0120000000e+05
    4.9498914741e-03    1.0120000000e+05
    4.9598370679e-03    1.0120000000e+05
    4.9697975628e-03    1.0120000000e+05
    4.9797603860e-03    1.0120000000e+05
    4.9899835140e-03    1.0120000000e+05
    4.9999351613e-03    1.0120000000e+05
    5.0098886713e-03    1.0120000000e+05
    5.0198547542e-03    1.0120000000e+05
    5.0298301503e-03    1.0120000000e+05
    5.0398069434e-03    1.0120000000e+05
    5.0497804768e-03    1.0120000000e+05
    5.0597521476e-03    1.0120000000e+05
    5.0699845888e-03    1.0120000000e+05
    5.0799534656e-03    1.0120000000e+05
    5.0899228081e-03    1.0120000000e+05
    5.0998972729e-03    1.0120000000e+05
    5.1098782569e-03    1.0120000000e+05
    5.1198606379e-03    1.0120000000e+05
    5.1298416220e-03    1.0120000000e+05
    5.1398207434e-03    1.0120000000e+05
    5.1497984678e-03    1.0120000000e+05
    5.1597761922e-03    1.0120000000e+05
    5.1697534509e-03    1.0120000000e+05
    5.1799933426e-03    1.0120000000e+05
    5.1899719983e-03    1.0120000000e+05
    5.1999501884e-03    1.0120000000e+05
    5.2099279128e-03    1.0120000000e+05
    5.2199056372e-03    1.0120000000e+05
    5.2298828959e-03    1.0120000000e+05
    5.2398596890e-03    1.0120000000e+05
    5.2498360164e-03    1.0120000000e+05
    5.2598123439e-03    1.0120000000e+05
    5.2697886713e-03    1.0120000000e+05
    5.2797640674e-03    1.0120000000e+05
    5.2897389978e-03    1.0120000000e+05
    5.2999765612e-03    1.0120000000e+05
    5.3099510260e-03    1.0120000000e+05
    5.3199254908e-03    1.0120000000e+05
    5.3298976272e-03    1.0120000000e+05
    5.3398702294e-03    1.0120000000e+05
    5.3498465568e-03    1.0120000000e+05
    5.3598242812e-03    1.0120000000e+05
    5.3698034026e-03    1.0120000000e+05
    5.3797834553e-03    1.0120000000e+05
    5.3897635080e-03    1.0120000000e+05
    5.3997426294e-03    1.0120000000e+05
    5.4099825211e-03    1.0120000000e+05
    5.4199583828e-03    1.0120000000e+05
    5.4299342446e-03    1.0120000000e+05
    5.4399087094e-03    1.0120000000e+05
    5.4498864338e-03    1.0120000000e+05
    5.4598692805e-03    1.0120000000e+05
    5.4698521271e-03    1.0120000000e+05
    5.4798340425e-03    1.0120000000e+05
    5.4898150265e-03    1.0120000000e+05
    5.4997955449e-03    1.0120000000e+05
    5.5097755976e-03    1.0120000000e+05
    5.5197542533e-03    1.0120000000e+05
    5.5299988016e-03    1.0120000000e+05
    5.5399835110e-03    1.0120000000e+05
    5.5499672890e-03    1.0120000000e+05
    5.5599501356e-03    1.0120000000e+05
    5.5699315853e-03    1.0120000000e+05
    5.5799125694e-03    1.0120000000e+05
    5.5898977444e-03    1.0120000000e+05
    5.5998861790e-03    1.0120000000e+05
    5.6098732166e-03    1.0120000000e+05
    5.6198593229e-03    1.0120000000e+05
    5.6298440322e-03    1.0120000000e+05
    5.6398310699e-03    1.0120000000e+05
    5.6498222984e-03    1.0120000000e+05
    5.6598121300e-03    1.0120000000e+05
    5.6698014960e-03    1.0120000000e+05
    5.6797899306e-03    1.0120000000e+05
    5.6897797622e-03    1.0120000000e+05
    5.6997728534e-03    1.0120000000e+05
    5.7097650133e-03    1.0120000000e+05
    5.7197562419e-03    1.0120000000e+05
    5.7297470048e-03    1.0120000000e+05
    5.7397414930e-03    1.0120000000e+05
    5.7499995455e-03    1.0120000000e+05
    5.7599935681e-03    1.0120000000e+05
    5.7699871249e-03    1.0120000000e+05
    5.7799825445e-03    1.0120000000e+05
    5.7899793610e-03    1.0120000000e+05
    5.7999752462e-03    1.0120000000e+05
    5.8099706657e-03    1.0120000000e+05
    5.8199665509e-03    1.0120000000e+05
    5.8299642988e-03    1.0120000000e+05
    5.8399606496e-03    1.0120000000e+05
    5.8499570005e-03    1.0120000000e+05
    5.8599542826e-03    1.0120000000e+05
    5.8699520305e-03    1.0120000000e+05
    5.8799488470e-03    1.0120000000e+05
    5.8899451979e-03    1.0120000000e+05
    5.8999424800e-03    1.0120000000e+05
    5.9099397622e-03    1.0120000000e+05
    5.9199365787e-03    1.0120000000e+05
    5.9299333952e-03    1.0120000000e+05
    5.9399297461e-03    1.0120000000e+05
    5.9499260969e-03    1.0120000000e+05
    5.9599224478e-03    1.0120000000e+05
    5.9699183330e-03    1.0120000000e+05
    5.9799142182e-03    1.0120000000e+05
    5.9899091721e-03    1.0120000000e+05
    5.9999041259e-03    1.0120000000e+05
    6.0098990798e-03    1.0120000000e+05
    6.0198935680e-03    1.0120000000e+05
    6.0298894532e-03    1.0120000000e+05
    6.0398862697e-03    1.0120000000e+05
    6.0498830862e-03    1.0120000000e+05
    6.0598785058e-03    1.0120000000e+05
    6.0698739253e-03    1.0120000000e+05
    6.0798688792e-03    1.0120000000e+05
    6.0898633674e-03    1.0120000000e+05
    6.0998578556e-03    1.0120000000e+05
    6.1098528095e-03    1.0120000000e+05
    6.1198472977e-03    1.0120000000e+05
    6.1298417859e-03    1.0120000000e+05
    6.1398358084e-03    1.0120000000e+05
    6.1498298310e-03    1.0120000000e+05
    6.1598229222e-03    1.0120000000e+05
    6.1698155478e-03    1.0120000000e+05
    6.1798081733e-03    1.0120000000e+05
    6.1898003332e-03    1.0120000000e+05
    6.1997924931e-03    1.0120000000e+05
    6.2097846530e-03    1.0120000000e+05
    6.2197777443e-03    1.0120000000e+05
    6.2297717668e-03    1.0120000000e+05
    6.2397653237e-03    1.0120000000e+05
    6.2497584149e-03    1.0120000000e+05
    6.2597510405e-03    1.0120000000e+05
    6.2697427347e-03    1.0120000000e+05
    6.2799970619e-03    1.0120000000e+05
    6.2899882905e-03    1.0120000000e+05
    6.2999790534e-03    1.0120000000e+05
    6.3099707477e-03    1.0120000000e+05
    6.3199629076e-03    1.0120000000e+05
    6.3299550675e-03    1.0120000000e+05
    6.3399467617e-03    1.0120000000e+05
    6.3499375246e-03    1.0120000000e+05
    6.3599282876e-03    1.0120000000e+05
    6.3699185848e-03    1.0120000000e+05
    6.3799093477e-03    1.0120000000e+05
    6.3899001107e-03    1.0120000000e+05
    6.3998908736e-03    1.0120000000e+05
    6.4098811708e-03    1.0120000000e+05
    6.4198723994e-03    1.0120000000e+05
    6.4298650250e-03    1.0120000000e+05
    6.4398576505e-03    1.0120000000e+05
    6.4498516731e-03    1.0120000000e+05
    6.4598480240e-03    1.0120000000e+05
    6.4698504284e-03    1.0120000000e+05
    6.4798593521e-03    1.0120000000e+05
    6.4898692071e-03    1.0120000000e+05
    6.4998846501e-03    1.0120000000e+05
    6.5099108033e-03    1.0120000000e+05
    6.5199495293e-03    1.0120000000e+05
    6.5299980342e-03    1.0120000000e+05
    6.5397834405e-03    1.0120000000e+05
    6.5498421900e-03    1.0120000000e+05
    6.5599121153e-03    1.0120000000e+05
    6.5699969418e-03    1.0120000000e+05
    6.5798251890e-03    1.0120000000e+05
    6.5899221227e-03    1.0120000000e+05
    6.5997587517e-03    1.0120000000e+05
    6.6098757088e-03    1.0120000000e+05
    6.6197407432e-03    1.0120000000e+05
    6.6298809834e-03    1.0120000000e+05
    6.6397525370e-03    1.0120000000e+05
    6.6498978995e-03    1.0120000000e+05
    6.6597941332e-03    1.0120000000e+05
    6.6699711606e-03    1.0120000000e+05
    6.6798846237e-03    1.0120000000e+05
    6.6897957586e-03    1.0120000000e+05
    6.6999825649e-03    1.0120000000e+05
    6.7099188454e-03    1.0120000000e+05
    6.7198653705e-03    1.0120000000e+05
    6.7298142239e-03    1.0120000000e+05
    6.7397598177e-03    1.0120000000e+05
    6.7499824800e-03    1.0120000000e+05
    6.7599583417e-03    1.0120000000e+05
    6.7699439824e-03    1.0120000000e+05
    6.7799286917e-03    1.0120000000e+05
    6.7899115384e-03    1.0120000000e+05
    6.7998995073e-03    1.0120000000e+05
    6.8099084310e-03    1.0120000000e+05
    6.8199289963e-03    1.0120000000e+05
    6.8299449049e-03    1.0120000000e+05
    6.8399617448e-03    1.0120000000e+05
    6.8499865010e-03    1.0120000000e+05
    6.8597574718e-03    1.0120000000e+05
    6.8698059767e-03    1.0120000000e+05
    6.8798535503e-03    1.0120000000e+05
    6.8899057806e-03    1.0120000000e+05
    6.8999668583e-03    1.0120000000e+05
    6.9097690284e-03    1.0120000000e+05
    6.9198491983e-03    1.0120000000e+05
    6.9299256429e-03    1.0120000000e+05
    6.9397361949e-03    1.0120000000e+05
    6.9498349912e-03    1.0120000000e+05
    6.9599407725e-03    1.0120000000e+05
    6.9697787985e-03    1.0120000000e+05
    6.9798869081e-03    1.0120000000e+05
    6.9897286594e-03    1.0120000000e+05
    6.9998553954e-03    1.0120000000e+05
    7.0099942386e-03    1.0120000000e+05
    7.0198569447e-03    1.0120000000e+05
    7.0299902000e-03    1.0120000000e+05
    7.0398589596e-03    1.0120000000e+05
    7.0497398265e-03    1.0120000000e+05
    7.0599061437e-03    1.0120000000e+05
    7.0697981864e-03    1.0120000000e+05
    7.0799603127e-03    1.0120000000e+05
    7.0898481645e-03    1.0120000000e+05
    7.0997527801e-03    1.0120000000e+05
    7.1099461056e-03    1.0120000000e+05
    7.1198642254e-03    1.0120000000e+05
    7.1297842078e-03    1.0120000000e+05
    7.1399793960e-03    1.0120000000e+05
    7.1499040350e-03    1.0120000000e+05
    7.1598398499e-03    1.0120000000e+05
    7.1697859094e-03    1.0120000000e+05
    7.1797324345e-03    1.0120000000e+05
    7.1899588220e-03    1.0120000000e+05
    7.1999123320e-03    1.0120000000e+05
    7.2098691016e-03    1.0120000000e+05
    7.2198319249e-03    1.0120000000e+05
    7.2298054583e-03    1.0120000000e+05
    7.2397817858e-03    1.0120000000e+05
    7.2497595102e-03    1.0120000000e+05
    7.2597460821e-03    1.0120000000e+05
    7.2697331198e-03    1.0120000000e+05
    7.2799990885e-03    1.0120000000e+05
    7.2897230275e-03    1.0120000000e+05
    7.2997258976e-03    1.0120000000e+05
    7.3097278364e-03    1.0120000000e+05
    7.3197344318e-03    1.0120000000e+05
    7.3297484778e-03    1.0120000000e+05
    7.3397643864e-03    1.0120000000e+05
    7.3497924022e-03    1.0120000000e+05
    7.3598246090e-03    1.0120000000e+05
    7.3698540218e-03    1.0120000000e+05
    7.3798899539e-03    1.0120000000e+05
    7.3899351992e-03    1.0120000000e+05
    7.3999846354e-03    1.0120000000e+05
    7.4097579345e-03    1.0120000000e+05
    7.4198171496e-03    1.0120000000e+05
    7.4298637919e-03    1.0120000000e+05
    7.4399192818e-03    1.0120000000e+05
    7.4499915354e-03    1.0120000000e+05
    7.4597885832e-03    1.0120000000e+05
    7.4698682874e-03    1.0120000000e+05
    7.4799554422e-03    1.0120000000e+05
    7.4897566810e-03    1.0120000000e+05
    7.4998321943e-03    1.0120000000e+05
    7.5099281967e-03    1.0120000000e+05
    7.5197480619e-03    1.0120000000e+05
    7.5298524462e-03    1.0120000000e+05
    7.5399642810e-03    1.0120000000e+05
    7.5497953221e-03    1.0120000000e+05
    7.5598997064e-03    1.0120000000e+05
    7.5697302818e-03    1.0120000000e+05
    7.5798612088e-03    1.0120000000e+05
    7.5899860822e-03    1.0120000000e+05
    7.5998390093e-03    1.0120000000e+05
    7.6099778526e-03    1.0120000000e+05
    7.6198303141e-03    1.0120000000e+05
    7.6299658976e-03    1.0120000000e+05
    7.6398365200e-03    1.0120000000e+05
    7.6499907300e-03    1.0120000000e+05
    7.6598566957e-03    1.0120000000e+05
    7.6697384939e-03    1.0120000000e+05
    7.6798982918e-03    1.0120000000e+05
    7.6897749677e-03    1.0120000000e+05
    7.6999501325e-03    1.0120000000e+05
    7.7098505571e-03    1.0120000000e+05
    7.7197402716e-03    1.0120000000e+05
    7.7299214900e-03    1.0120000000e+05
    7.7398340218e-03    1.0120000000e+05
    7.7497349121e-03    1.0120000000e+05
    7.7599287033e-03    1.0120000000e+05
    7.7698561363e-03    1.0120000000e+05
    7.7797756530e-03    1.0120000000e+05
    7.7899768949e-03    1.0120000000e+05
    7.7999071218e-03    1.0120000000e+05
    7.8098429367e-03    1.0120000000e+05
    7.8197708353e-03    1.0120000000e+05
    7.8297173604e-03    1.0120000000e+05
    7.8399470076e-03    1.0120000000e+05
    7.8498888761e-03    1.0120000000e+05
    7.8598465770e-03    1.0120000000e+05
    7.8698135912e-03    1.0120000000e+05
    7.8797750175e-03    1.0120000000e+05
    7.8897355124e-03    1.0120000000e+05
    7.8999912366e-03    1.0120000000e+05
    7.9099535942e-03    1.0120000000e+05
    7.9199289903e-03    1.0120000000e+05
    7.9299248755e-03    1.0120000000e+05
    7.9399179667e-03    1.0120000000e+05
    7.9499110579e-03    1.0120000000e+05
    7.9599069431e-03    1.0120000000e+05
    7.9699074849e-03    1.0120000000e+05
    7.9798940569e-03    1.0120000000e+05
    7.9898964614e-03    1.0120000000e+05
    7.9999156296e-03    1.0120000000e+05
    8.0099347979e-03    1.0120000000e+05
    8.0199604854e-03    1.0120000000e+05
    8.0299954861e-03    1.0120000000e+05
    8.0397361889e-03    1.0120000000e+05
    8.0497581512e-03    1.0120000000e+05
    8.0597950146e-03    1.0120000000e+05
    8.0698356032e-03    1.0120000000e+05
    8.0798799172e-03    1.0120000000e+05
    8.0899400637e-03    1.0120000000e+05
    8.0997161567e-03    1.0120000000e+05
    8.1097772345e-03    1.0120000000e+05
    8.1198420376e-03    1.0120000000e+05
    8.1299152225e-03    1.0120000000e+05
    8.1399846822e-03    1.0120000000e+05
    8.1497700885e-03    1.0120000000e+05
    8.1598553807e-03    1.0120000000e+05
    8.1699434668e-03    1.0120000000e+05
    8.1797530875e-03    1.0120000000e+05
    8.1898607314e-03    1.0120000000e+05
    8.1999721006e-03    1.0120000000e+05
    8.2097938284e-03    1.0120000000e+05
    8.2199117169e-03    1.0120000000e+05
    8.2297427580e-03    1.0120000000e+05
    8.2398541272e-03    1.0120000000e+05
    8.2499748096e-03    1.0120000000e+05
    8.2598207518e-03    1.0120000000e+05
    8.2699554041e-03    1.0120000000e+05
    8.2798032090e-03    1.0120000000e+05
    8.2899536937e-03    1.0120000000e+05
    8.2998163998e-03    1.0120000000e+05
    8.3099659532e-03    1.0120000000e+05
    8.3198258653e-03    1.0120000000e+05
    8.3299782127e-03    1.0120000000e+05
    8.3398548886e-03    1.0120000000e+05
    8.3497483283e-03    1.0120000000e+05
    8.3599379286e-03    1.0120000000e+05
    8.3698350936e-03    1.0120000000e+05
    8.3797341213e-03    1.0120000000e+05
    8.3899274468e-03    1.0120000000e+05
    8.3998274058e-03    1.0120000000e+05
    8.4097264335e-03    1.0120000000e+05
    8.4199309349e-03    1.0120000000e+05
    8.4298504516e-03    1.0120000000e+05
    8.4397755563e-03    1.0120000000e+05
    8.4499903023e-03    1.0120000000e+05
    8.4599237889e-03    1.0120000000e+05
    8.4698535502e-03    1.0120000000e+05
    8.4797926247e-03    1.0120000000e+05
    8.4897484630e-03    1.0120000000e+05
    8.4997126833e-03    1.0120000000e+05
    8.5099777207e-03    1.0120000000e+05
    8.5199559107e-03    1.0120000000e+05
    8.5299341008e-03    1.0120000000e+05
    8.5399067029e-03    1.0120000000e+05
    8.5498746485e-03    1.0120000000e+05
    8.5598472506e-03    1.0120000000e+05
    8.5698273033e-03    1.0120000000e+05
    8.5798148066e-03    1.0120000000e+05
    8.5898116231e-03    1.0120000000e+05
    8.5998112336e-03    1.0120000000e+05
    8.6098117754e-03    1.0120000000e+05
    8.6198095232e-03    1.0120000000e+05
    8.6298016831e-03    1.0120000000e+05
    8.6397938430e-03    1.0120000000e+05
    8.6497953162e-03    1.0120000000e+05
    8.6598061025e-03    1.0120000000e+05
    8.6698187515e-03    1.0120000000e+05
    8.6798323318e-03    1.0120000000e+05
    8.6898468435e-03    1.0120000000e+05
    8.6998613551e-03    1.0120000000e+05
    8.7098721415e-03    1.0120000000e+05
    8.7198819965e-03    1.0120000000e+05
    8.7299002334e-03    1.0120000000e+05
    8.7399324402e-03    1.0120000000e+05
    8.7499674410e-03    1.0120000000e+05
    8.7599987164e-03    1.0120000000e+05
    8.7697338313e-03    1.0120000000e+05
    8.7797697634e-03    1.0120000000e+05
    8.7898075581e-03    1.0120000000e+05
    8.7998500094e-03    1.0120000000e+05
    8.8099027053e-03    1.0120000000e+05
    8.8199619204e-03    1.0120000000e+05
    8.8297277689e-03    1.0120000000e+05
    8.8397869840e-03    1.0120000000e+05
    8.8498443365e-03    1.0120000000e+05
    8.8598998263e-03    1.0120000000e+05
    8.8699553162e-03    1.0120000000e+05
    8.8797155768e-03    1.0120000000e+05
    8.8897719979e-03    1.0120000000e+05
    8.8998321444e-03    1.0120000000e+05
    8.9098969474e-03    1.0120000000e+05
    8.9199617505e-03    1.0120000000e+05
    8.9297313243e-03    1.0120000000e+05
    8.9397951961e-03    1.0120000000e+05
    8.9498572052e-03    1.0120000000e+05
    8.9599192142e-03    1.0120000000e+05
    8.9699802920e-03    1.0120000000e+05
    8.9797442779e-03    1.0120000000e+05
    8.9898044243e-03    1.0120000000e+05
    8.9998636395e-03    1.0120000000e+05
    9.0099219233e-03    1.0120000000e+05
    9.0199802071e-03    1.0120000000e+05
    9.0297413990e-03    1.0120000000e+05
    9.0397978202e-03    1.0120000000e+05
    9.0498533100e-03    1.0120000000e+05
    9.0599078685e-03    1.0120000000e+05
    9.0699633583e-03    1.0120000000e+05
    9.0797217563e-03    1.0120000000e+05
    9.0897753835e-03    1.0120000000e+05
    9.0998290107e-03    1.0120000000e+05
    9.1098826379e-03    1.0120000000e+05
    9.1199362651e-03    1.0120000000e+05
    9.1299926862e-03    1.0120000000e+05
    9.1397529468e-03    1.0120000000e+05
    9.1498130932e-03    1.0120000000e+05
    9.1598732397e-03    1.0120000000e+05
    9.1699333861e-03    1.0120000000e+05
    9.1799926013e-03    1.0120000000e+05
    9.1897593811e-03    1.0120000000e+05
    9.1998269781e-03    1.0120000000e+05
    9.2098945752e-03    1.0120000000e+05
    9.2199733481e-03    1.0120000000e+05
    9.2297624797e-03    1.0120000000e+05
    9.2398459092e-03    1.0120000000e+05
    9.2499284074e-03    1.0120000000e+05
    9.2597287148e-03    1.0120000000e+05
    9.2698233202e-03    1.0120000000e+05
    9.2799309641e-03    1.0120000000e+05
    9.2897526920e-03    1.0120000000e+05
    9.2998845503e-03    1.0120000000e+05
    9.3097230420e-03    1.0120000000e+05
    9.3198679388e-03    1.0120000000e+05
    9.3297176063e-03    1.0120000000e+05
    9.3398829922e-03    1.0120000000e+05
    9.3497578055e-03    1.0120000000e+05
    9.3599455431e-03    1.0120000000e+05
    9.3698520213e-03    1.0120000000e+05
    9.3797631562e-03    1.0120000000e+05
    9.3899741769e-03    1.0120000000e+05
    9.3998871744e-03    1.0120000000e+05
    9.4098011032e-03    1.0120000000e+05
    9.4197290018e-03    1.0120000000e+05
    9.4299893826e-03    1.0120000000e+05
    9.4399545342e-03    1.0120000000e+05
    9.4499280676e-03    1.0120000000e+05
    9.4599053264e-03    1.0120000000e+05
    9.4698844478e-03    1.0120000000e+05
    9.4798654318e-03    1.0120000000e+05
    9.4898501411e-03    1.0120000000e+05
    9.4998348504e-03    1.0120000000e+05
    9.5098242164e-03    1.0120000000e+05
    9.5198154449e-03    1.0120000000e+05
    9.5298057422e-03    1.0120000000e+05
    9.5398453996e-03    1.0120000000e+05
    9.5499968156e-03    1.0120000000e+05
    9.5599927008e-03    1.0120000000e+05
    9.5698600635e-03    1.0120000000e+05
    9.5799388364e-03    1.0120000000e+05
    9.5899086446e-03    1.0120000000e+05
    9.5997536555e-03    1.0120527344e+05
    9.6098054200e-03    1.2189450781e+05
    9.6197044477e-03    1.7738506250e+05
    9.6297916025e-03    1.7690101562e+05
    9.6396943554e-03    1.7655893750e+05
    9.6497675404e-03    1.7620232812e+05
    9.6596274525e-03    1.7585264062e+05
    9.6696428955e-03    1.7549876562e+05
    9.6798110753e-03    1.7514143750e+05
    9.6897324547e-03    1.7479392188e+05
    9.6997944638e-03    1.7444340625e+05
    9.7099971026e-03    1.7408943750e+05
    9.7199222073e-03    1.7374650000e+05
    9.7299730405e-03    1.7340143750e+05
    9.7397193313e-03    1.7306757812e+05
    9.7495764494e-03    1.7273107812e+05
    9.7599783912e-03    1.7237843750e+05
    9.7696240991e-03    1.7205314062e+05
    9.7798267379e-03    1.7171023438e+05
    9.7896968946e-03    1.7137975000e+05
    9.7996667027e-03    1.7104731250e+05
    9.8097091541e-03    1.7071417188e+05
    9.8197935149e-03    1.7038132812e+05
    9.8299067467e-03    1.7004879688e+05
    9.8396046087e-03    1.6973121875e+05
    9.8497979343e-03    1.6939821875e+05
    9.8595703021e-03    1.6908101562e+05
    9.8698548973e-03    1.6874915625e+05
    9.8797343671e-03    1.6843164062e+05
    9.8896492273e-03    1.6811346875e+05
    9.8996162415e-03    1.6779520312e+05
    9.9096503109e-03    1.6747742188e+05
    9.9197207019e-03    1.6715987500e+05
    9.9298255518e-03    1.6684093750e+05
    9.9399806932e-03    1.6652187500e+05
    9.9497130141e-03    1.6621893750e+05
    9.9599640816e-03    1.6590260938e+05
    9.9697681144e-03    1.6559840625e+05
    9.9795982242e-03    1.6529403125e+05
    9.9895121530e-03    1.6498976562e+05
    9.9999252707e-03    1.6467429688e+05
    1.0009909049e-02    1.6436992188e+05
    1.0019931011e-02    1.6406556250e+05
    1.0029992089e-02    1.6376329688e+05
    1.0039578192e-02    1.6347700000e+05
    1.0049658827e-02    1.6317507812e+05
    1.0059852153e-02    1.6287126562e+05
    1.0069635697e-02    1.6258257812e+05
    1.0079844855e-02    1.6228112500e+05
    1.0089606978e-02    1.6199439062e+05
    1.0099966079e-02    1.6169157812e+05
    1.0109871626e-02    1.6140428125e+05
    1.0119725019e-02    1.6111709375e+05
    1.0129647329e-02    1.6083106250e+05
    1.0139580816e-02    1.6054562500e+05
    1.0149558075e-02    1.6026081250e+05
    1.0159550235e-02    1.5997601562e+05
    1.0169553570e-02    1.5969170312e+05
    1.0179663077e-02    1.5940726562e+05
    1.0189743713e-02    1.5912326562e+05
    1.0199798271e-02    1.5883967188e+05
    1.0209939443e-02    1.5855681250e+05
    1.0219586082e-02    1.5828834375e+05
    1.0229770094e-02    1.5800753125e+05
    1.0239987634e-02    1.5772631250e+05
    1.0249712504e-02    1.5745960938e+05
    1.0259977542e-02    1.5717907812e+05
    1.0269748047e-02    1.5691304688e+05
    1.0279517621e-02    1.5664860938e+05
    1.0289816186e-02    1.5637042188e+05
    1.0299568996e-02    1.5611023438e+05
    1.0309613310e-02    1.5584104688e+05
    1.0319960304e-02    1.5556482812e+05
    1.0329944082e-02    1.5529953125e+05
    1.0339995846e-02    1.5503376562e+05
    1.0349631310e-02    1.5478014062e+05
    1.0359723121e-02    1.5451520312e+05
    1.0369759053e-02    1.5425250000e+05
    1.0379699059e-02    1.5399387500e+05
    1.0389861651e-02    1.5373107812e+05
    1.0399792343e-02    1.5347481250e+05
    1.0409761220e-02    1.5321793750e+05
    1.0419942439e-02    1.5295712500e+05
    1.0429854505e-02    1.5270482812e+05
    1.0439827107e-02    1.5245143750e+05
    1.0449944064e-02    1.5219504688e+05
    1.0459839366e-02    1.5194601562e+05
    1.0469908826e-02    1.5169350000e+05
    1.0479873046e-02    1.5144560938e+05
    1.0489965789e-02    1.5119435938e+05
    1.0499912314e-02    1.5094878125e+05
    1.0509846732e-02    1.5070500000e+05
    1.0519864038e-02    1.5045973438e+05
    1.0529941879e-02    1.5021342188e+05
    1.0539893061e-02    1.4997146875e+05
    1.0549808852e-02    1.4973173438e+05
    1.0559967719e-02    1.4948693750e+05
    1.0569988750e-02    1.4924618750e+05
    1.0579848662e-02    1.4901037500e+05
    1.0589901358e-02    1.4877103125e+05
    1.0599986650e-02    1.4853203125e+05
    1.0609851219e-02    1.4829892188e+05
    1.0619888082e-02    1.4806251562e+05
    1.0629852302e-02    1.4782909375e+05
    1.0639948770e-02    1.4759362500e+05
    1.0649914853e-02    1.4736193750e+05
    1.0659968480e-02    1.4712909375e+05
    1.0669867508e-02    1.4690070312e+05
    1.0679828003e-02    1.4667190625e+05
    1.0689841583e-02    1.4644279688e+05
    1.0699911974e-02    1.4621354688e+05
    1.0709783062e-02    1.4598957812e+05
    1.0719942860e-02    1.4575982812e+05
    1.0729888454e-02    1.4553565625e+05
    1.0739875026e-02    1.4531159375e+05
    1.0749889538e-02    1.4508789062e+05
    1.0759933852e-02    1.4486459375e+05
    1.0769763030e-02    1.4464679688e+05
    1.0779851116e-02    1.4442389062e+05
    1.0789978318e-02    1.4420107812e+05
    1.0799869895e-02    1.4398456250e+05
    1.0809787549e-02    1.4376850000e+05
    1.0819974355e-02    1.4354714062e+05
    1.0829921812e-02    1.4333184375e+05
    1.0839906521e-02    1.4311690625e+05
    1.0849882849e-02    1.4290284375e+05
    1.0859900154e-02    1.4268825000e+05
    1.0869926773e-02    1.4247445312e+05
    1.0879948735e-02    1.4226223438e+05
    1.0889764875e-02    1.4205504688e+05
    1.0899825022e-02    1.4184285938e+05
    1.0909914039e-02    1.4163106250e+05
    1.0919749737e-02    1.4142600000e+05
    1.0929871351e-02    1.4121573438e+05
    1.0939762928e-02    1.4101051562e+05
    1.0949887335e-02    1.4080126562e+05
    1.0959797539e-02    1.4059759375e+05
    1.0969982482e-02    1.4038901562e+05
    1.0979912244e-02    1.4018631250e+05
    1.0989854112e-02    1.3998429688e+05
    1.0999826714e-02    1.3978257812e+05
    1.1009817012e-02    1.3958109375e+05
    1.1019797064e-02    1.3938046875e+05
    1.1029796675e-02    1.3918023438e+05
    1.1039833538e-02    1.3898018750e+05
    1.1049860157e-02    1.3878109375e+05
    1.1059888639e-02    1.3858273438e+05
    1.1069952510e-02    1.3838442188e+05
    1.1079777963e-02    1.3819156250e+05
    1.1089849286e-02    1.3799465625e+05
    1.1099936441e-02    1.3779820312e+05
    1.1109792627e-02    1.3760701562e+05
    1.1119903997e-02    1.3741157812e+05
    1.1129750870e-02    1.3722193750e+05
    1.1139885522e-02    1.3702754688e+05
    1.1149787344e-02    1.3683835938e+05
    1.1159935966e-02    1.3664523438e+05
    1.1169831268e-02    1.3645771875e+05
    1.1179753579e-02    1.3627020312e+05
    1.1189944111e-02    1.3607828125e+05
    1.1199868284e-02    1.3589229688e+05
    1.1209803633e-02    1.3570690625e+05
    1.1219763197e-02    1.3552162500e+05
    1.1229988188e-02    1.3533200000e+05
    1.1239949614e-02    1.3514815625e+05
    1.1249930598e-02    1.3496478125e+05
    1.1259925552e-02    1.3478151562e+05
    1.1269914918e-02    1.3459882812e+05
    1.1279915459e-02    1.3441712500e+05
    1.1289933696e-02    1.3423606250e+05
    1.1299958453e-02    1.3405510938e+05
    1.1309980415e-02    1.3387442188e+05
    1.1319747195e-02    1.3369935938e+05
    1.1329797097e-02    1.3352042188e+05
    1.1339851655e-02    1.3334185938e+05
    1.1349906214e-02    1.3316360938e+05
    1.1359970085e-02    1.3298592188e+05
    1.1369780637e-02    1.3281350000e+05
    1.1379860342e-02    1.3263698438e+05
    1.1389946565e-02    1.3246101562e+05
    1.1399776675e-02    1.3229014062e+05
    1.1409876868e-02    1.3211512500e+05
    1.1419981718e-02    1.3194065625e+05
    1.1429826729e-02    1.3177139062e+05
    1.1439947411e-02    1.3159810938e+05
    1.1449802667e-02    1.3142987500e+05
    1.1459928006e-02    1.3125756250e+05
    1.1469790712e-02    1.3109034375e+05
    1.1479934677e-02    1.3091908594e+05
    1.1489816941e-02    1.3075286719e+05
    1.1499969289e-02    1.3058271094e+05
    1.1509858072e-02    1.3041749219e+05
    1.1519749649e-02    1.3025277344e+05
    1.1529909447e-02    1.3008428125e+05
    1.1539807543e-02    1.2992085156e+05
    1.1549978517e-02    1.2975353906e+05
    1.1559885927e-02    1.2959110156e+05
    1.1569799855e-02    1.2942911719e+05
    1.1579987593e-02    1.2926333594e+05
    1.1589909904e-02    1.2910253906e+05
    1.1599833146e-02    1.2894233594e+05
    1.1609753594e-02    1.2878269531e+05
    1.1619941331e-02    1.2861928906e+05
    1.1629865505e-02    1.2846078906e+05
    1.1639788747e-02    1.2830296094e+05
    1.1649982072e-02    1.2814136719e+05
    1.1659910902e-02    1.2798431250e+05
    1.1669843458e-02    1.2782775781e+05
    1.1679777876e-02    1.2767200000e+05
    1.1689981446e-02    1.2751262500e+05
    1.1699916795e-02    1.2735782031e+05
    1.1709853075e-02    1.2720365625e+05
    1.1719788425e-02    1.2705022656e+05
    1.1729992926e-02    1.2689306250e+05
    1.1739929207e-02    1.2674039844e+05
    1.1749865487e-02    1.2658841406e+05
    1.1759800836e-02    1.2643713281e+05
    1.1769737117e-02    1.2628618750e+05
    1.1779941618e-02    1.2613158594e+05
    1.1789878830e-02    1.2598177344e+05
    1.1799816974e-02    1.2583258594e+05
    1.1809756048e-02    1.2568381250e+05
    1.1819964275e-02    1.2553146094e+05
    1.1829903349e-02    1.2538367969e+05
    1.1839843355e-02    1.2523650781e+05
    1.1849784292e-02    1.2508983594e+05
    1.1859994382e-02    1.2493966406e+05
    1.1869936250e-02    1.2479397656e+05
    1.1879879050e-02    1.2464896094e+05
    1.1889821850e-02    1.2450472656e+05
    1.1899765581e-02    1.2436136719e+05
    1.1909978464e-02    1.2421478906e+05
    1.1919923127e-02    1.2407231250e+05
    1.1929867789e-02    1.2392972656e+05
    1.1939813383e-02    1.2378730469e+05
    1.1949758977e-02    1.2364563281e+05
    1.1959972791e-02    1.2350122656e+05
    1.1969917454e-02    1.2336125781e+05
    1.1979863048e-02    1.2322138281e+05
    1.1989809573e-02    1.2308171094e+05
    1.1999757029e-02    1.2294269531e+05
    1.2009976432e-02    1.2280068750e+05
    1.2019931339e-02    1.2266280469e+05
    1.2029892765e-02    1.2252513281e+05
    1.2039855123e-02    1.2238782031e+05
    1.2049815618e-02    1.2225103125e+05
    1.2059776112e-02    1.2211489844e+05
    1.2069734745e-02    1.2197935156e+05
    1.2079961598e-02    1.2184052344e+05
    1.2089919299e-02    1.2170566406e+05
    1.2099877931e-02    1.2157142969e+05
    1.2109839357e-02    1.2143772656e+05
    1.2119804509e-02    1.2130428125e+05
    1.2129768729e-02    1.2117121875e+05
    1.2139732949e-02    1.2103881250e+05
    1.2149966322e-02    1.2090336719e+05
    1.2159931473e-02    1.2077181250e+05
    1.2169895694e-02    1.2064071875e+05
    1.2179859914e-02    1.2051015625e+05
    1.2189825065e-02    1.2038000000e+05
    1.2199789286e-02    1.2025024219e+05
    1.2209753506e-02    1.2012099219e+05
    1.2219987810e-02    1.1998872656e+05
    1.2229952961e-02    1.1986036719e+05
    1.2239918113e-02    1.1973243750e+05
    1.2249883264e-02    1.1960499219e+05
    1.2259848416e-02    1.1947797656e+05
    1.2269813567e-02    1.1935137500e+05
    1.2279777788e-02    1.1922521875e+05
    1.2289743870e-02    1.1909950781e+05
    1.2299979106e-02    1.1897083594e+05
    1.2309944257e-02    1.1884596875e+05
    1.2319910340e-02    1.1872158594e+05
    1.2329876423e-02    1.1859764844e+05
    1.2339841574e-02    1.1847410156e+05
    1.2349807657e-02    1.1835096094e+05
    1.2359773740e-02    1.1822824219e+05
    1.2369739823e-02    1.1810596875e+05
    1.2379975058e-02    1.1798078125e+05
    1.2389942072e-02    1.1785927344e+05
    1.2399908155e-02    1.1773828125e+05
    1.2409874238e-02    1.1761778906e+05
    1.2419840321e-02    1.1749759375e+05
    1.2429806404e-02    1.1737765625e+05
    1.2439773418e-02    1.1725827344e+05
    1.2449739501e-02    1.1713950000e+05
    1.2459975667e-02    1.1701778906e+05
    1.2469941750e-02    1.1689946094e+05
    1.2479908764e-02    1.1678166406e+05
    1.2489875779e-02    1.1666453906e+05
    1.2499841861e-02    1.1654771094e+05
    1.2509808876e-02    1.1643107031e+05
    1.2519775890e-02    1.1631489844e+05
    1.2529742904e-02    1.1619925000e+05
    1.2539979070e-02    1.1608082031e+05
    1.2549947016e-02    1.1596583594e+05
    1.2559914030e-02    1.1585125000e+05
    1.2569881044e-02    1.1573703906e+05
    1.2579848059e-02    1.1562316406e+05
    1.2589816004e-02    1.1550971094e+05
    1.2599783018e-02    1.1539665625e+05
    1.2609750964e-02    1.1528397656e+05
    1.2619988061e-02    1.1516868750e+05
    1.2629956007e-02    1.1505688281e+05
    1.2639923953e-02    1.1494552344e+05
    1.2649891898e-02    1.1483458594e+05
    1.2659859844e-02    1.1472403906e+05
    1.2669827789e-02    1.1461389844e+05
    1.2679795735e-02    1.1450409375e+05
    1.2689763680e-02    1.1439464844e+05
    1.2699731626e-02    1.1428547656e+05
    1.2709969655e-02    1.1417363281e+05
    1.2719938532e-02    1.1406496094e+05
    1.2729908340e-02    1.1395652344e+05
    1.2739877217e-02    1.1384841406e+05
    1.2749846093e-02    1.1374058594e+05
    1.2759815902e-02    1.1363299219e+05
    1.2769784778e-02    1.1352582031e+05
    1.2779754587e-02    1.1341930469e+05
    1.2789993547e-02    1.1331057031e+05
    1.2799962424e-02    1.1320516406e+05
    1.2809932232e-02    1.1310024219e+05
    1.2819902040e-02    1.1299602344e+05
    1.2829872780e-02    1.1289239844e+05
    1.2839843519e-02    1.1278903906e+05
    1.2849814259e-02    1.1268596875e+05
    1.2859785929e-02    1.1258321094e+05
    1.2869756669e-02    1.1248046875e+05
    1.2879997492e-02    1.1237471094e+05
    1.2889969163e-02    1.1227166406e+05
    1.2899939902e-02    1.1216875000e+05
    1.2909911573e-02    1.1206572656e+05
    1.2919883244e-02    1.1196271094e+05
    1.2929854915e-02    1.1186002344e+05
    1.2939826585e-02    1.1175783594e+05
    1.2949799187e-02    1.1165615625e+05
    1.2959771790e-02    1.1155518750e+05
    1.2969744392e-02    1.1145513281e+05
    1.2979987077e-02    1.1135336719e+05
    1.2989959680e-02    1.1125524219e+05
    1.2999933213e-02    1.1115806250e+05
    1.3009906746e-02    1.1106171875e+05
    1.3019879349e-02    1.1096602344e+05
    1.3029852882e-02    1.1087071875e+05
    1.3039826415e-02    1.1077557031e+05
    1.3049799949e-02    1.1068027344e+05
    1.3059774414e-02    1.1058453906e+05
    1.3069748878e-02    1.1048825000e+05
    1.3079993427e-02    1.1038868750e+05
    1.3089968823e-02    1.1029121875e+05
    1.3099943288e-02    1.1019346094e+05
    1.3109918684e-02    1.1009563281e+05
    1.3119894080e-02    1.0999790625e+05
    1.3129869476e-02    1.0990040625e+05
    1.3139845803e-02    1.0980341406e+05
    1.3149821199e-02    1.0970727344e+05
    1.3159796596e-02    1.0961199219e+05
    1.3169772923e-02    1.0951741406e+05
    1.3179749250e-02    1.0942353906e+05
    1.3189995661e-02    1.0932816406e+05
    1.3199972920e-02    1.0923633594e+05
    1.3209950179e-02    1.0914531250e+05
    1.3219927438e-02    1.0905510156e+05
    1.3229903765e-02    1.0896578125e+05
    1.3239881955e-02    1.0887709375e+05
    1.3249859214e-02    1.0878875781e+05
    1.3259837404e-02    1.0870083594e+05
    1.3269815594e-02    1.0861322656e+05
    1.3279793784e-02    1.0852552344e+05
    1.3289772905e-02    1.0843746094e+05
    1.3299751095e-02    1.0834914844e+05
    1.3309999369e-02    1.0825814844e+05
    1.3319979422e-02    1.0816910156e+05
    1.3329958543e-02    1.0807978125e+05
    1.3339937665e-02    1.0799037500e+05
    1.3349917717e-02    1.0790097656e+05
    1.3359897770e-02    1.0781166406e+05
    1.3369876891e-02    1.0772258594e+05
    1.3379857875e-02    1.0763378906e+05
    1.3389837928e-02    1.0754531250e+05
    1.3399818912e-02    1.0745716406e+05
    1.3409799896e-02    1.0736939844e+05
    1.3419780880e-02    1.0728199219e+05
    1.3429761864e-02    1.0719497656e+05
    1.3439742848e-02    1.0710835156e+05
    1.3449994847e-02    1.0701975000e+05
    1.3459976763e-02    1.0693387500e+05
    1.3469958678e-02    1.0684847656e+05
    1.3479939662e-02    1.0676360156e+05
    1.3489922509e-02    1.0667922656e+05
    1.3499904424e-02    1.0659525781e+05
    1.3509887271e-02    1.0651180469e+05
    1.3519870117e-02    1.0642894531e+05
    1.3529852964e-02    1.0634660156e+05
    1.3539835811e-02    1.0626456250e+05
    1.3549819589e-02    1.0618288281e+05
    1.3559802435e-02    1.0610172656e+05
    1.3569786213e-02    1.0602093750e+05
    1.3579769991e-02    1.0594025000e+05
    1.3589753769e-02    1.0585963281e+05
    1.3599737547e-02    1.0577921094e+05
    1.3609991409e-02    1.0569664844e+05
    1.3619976118e-02    1.0561621094e+05
    1.3629959896e-02    1.0553591406e+05
    1.3639945537e-02    1.0545578125e+05
    1.3649930246e-02    1.0537565625e+05
    1.3659915887e-02    1.0529566406e+05
    1.3669900596e-02    1.0521600000e+05
    1.3679886237e-02    1.0513662500e+05
    1.3689870946e-02    1.0505746875e+05
    1.3699856587e-02    1.0497865625e+05
    1.3709843159e-02    1.0490022656e+05
    1.3719828799e-02    1.0482212500e+05
    1.3729815371e-02    1.0474431250e+05
    1.3739801012e-02    1.0466680469e+05
    1.3749787584e-02    1.0458955469e+05
    1.3759774156e-02    1.0451253906e+05
    1.3769760728e-02    1.0443577344e+05
    1.3779748231e-02    1.0435922656e+05
    1.3789734803e-02    1.0428293750e+05
    1.3799992390e-02    1.0420478906e+05
    1.3809979893e-02    1.0412891406e+05
    1.3819967397e-02    1.0405321875e+05
    1.3829954900e-02    1.0397775000e+05
    1.3839942403e-02    1.0390258594e+05
    1.3849930838e-02    1.0382771875e+05
    1.3859919272e-02    1.0375306250e+05
    1.3869906776e-02    1.0367859375e+05
    1.3879895210e-02    1.0360440625e+05
    1.3889884576e-02    1.0353050000e+05
    1.3899873011e-02    1.0345678125e+05
    1.3909861445e-02    1.0338327344e+05
    1.3919850811e-02    1.0331010156e+05
    1.3929840177e-02    1.0323721094e+05
    1.3939828612e-02    1.0316439844e+05
    1.3949817978e-02    1.0309174219e+05
    1.3959808275e-02    1.0301950781e+05
    1.3969797641e-02    1.0294753906e+05
    1.3979787007e-02    1.0287564844e+05
    1.3989777304e-02    1.0280400000e+05
    1.3999767601e-02    1.0273277344e+05
    1.4009757899e-02    1.0266167969e+05
    1.4019748196e-02    1.0259068750e+05
    1.4029738493e-02    1.0252009375e+05
    1.4039998874e-02    1.0244791406e+05
    1.4049989171e-02    1.0237767969e+05
    1.4059980400e-02    1.0230766406e+05
    1.4069971628e-02    1.0223809375e+05
    1.4079961926e-02    1.0216871094e+05
    1.4089953154e-02    1.0209933594e+05
    1.4099944383e-02    1.0203021094e+05
    1.4109935611e-02    1.0196150000e+05
    1.4119927771e-02    1.0189303906e+05
    1.4129919000e-02    1.0182466406e+05
    1.4139911160e-02    1.0175641406e+05
    1.4149902388e-02    1.0168852344e+05
    1.4159894548e-02    1.0162103906e+05
    1.4169886708e-02    1.0155377344e+05
    1.4179878868e-02    1.0148642969e+05
    1.4189871028e-02    1.0141913281e+05
    1.4199864119e-02    1.0135218750e+05
    1.4209856279e-02    1.0128574219e+05
    1.4219848439e-02    1.0121958594e+05
    1.4229841530e-02    1.0115339844e+05
    1.4239834622e-02    1.0108719531e+05
    1.4249826781e-02    1.0102113281e+05
    1.4259819873e-02    1.0095528125e+05
    1.4269812964e-02    1.0088964844e+05
    1.4279806055e-02    1.0082425781e+05
    1.4289799146e-02    1.0075905469e+05
    1.4299793169e-02    1.0069380469e+05
    1.4309786260e-02    1.0062850781e+05
    1.4319780283e-02    1.0056344531e+05
    1.4329773374e-02    1.0049862500e+05
    1.4339767396e-02    1.0043386719e+05
    1.4349761419e-02    1.0036930469e+05
    1.4359755442e-02    1.0030507031e+05
    1.4369749464e-02    1.0024096094e+05
    1.4379743487e-02    1.0017685156e+05
    1.4389737509e-02    1.0011306250e+05
    1.4399731532e-02    1.0004964844e+05
    1.4409995638e-02    9.9984789062e+04
    1.4419990592e-02    9.9922039062e+04
    1.4429984614e-02    9.9859820312e+04
    1.4439978637e-02    9.9797992188e+04
    1.4449973591e-02    9.9736523438e+04
    1.4459967613e-02    9.9675468750e+04
    1.4469962567e-02    9.9614781250e+04
    1.4479957521e-02    9.9554414062e+04
    1.4489952475e-02    9.9494445312e+04
    1.4499946497e-02    9.9434851562e+04
    1.4509941451e-02    9.9375601562e+04
    1.4519936405e-02    9.9316523438e+04
    1.4529931359e-02    9.9257507812e+04
    1.4539926313e-02    9.9198429688e+04
    1.4549921267e-02    9.9139289062e+04
    1.4559916221e-02    9.9080085938e+04
    1.4569911174e-02    9.9020773438e+04
    1.4579907060e-02    9.8961210938e+04
    1.4589902014e-02    9.8901398438e+04
    1.4599896967e-02    9.8841523438e+04
    1.4609891921e-02    9.8781773438e+04
    1.4619887806e-02    9.8722164062e+04
    1.4629882760e-02    9.8662750000e+04
    1.4639877714e-02    9.8603632812e+04
    1.4649873599e-02    9.8544812500e+04
    1.4659868553e-02    9.8486164062e+04
    1.4669863507e-02    9.8427867188e+04
    1.4679859392e-02    9.8370117188e+04
    1.4689854346e-02    9.8312726562e+04
    1.4699850231e-02    9.8255460938e+04
    1.4709845185e-02    9.8198554688e+04
    1.4719841070e-02    9.8142148438e+04
    1.4729836024e-02    9.8085968750e+04
    1.4739830978e-02    9.8029914062e+04
    1.4749826863e-02    9.7974179688e+04
    1.4759821817e-02    9.7918718750e+04
    1.4769817702e-02    9.7863351562e+04
    1.4779812656e-02    9.7808187500e+04
    1.4789808542e-02    9.7753281250e+04
    1.4799803495e-02    9.7698601562e+04
    1.4809799381e-02    9.7644125000e+04
    1.4819794334e-02    9.7589851562e+04
    1.4829789288e-02    9.7535750000e+04
    1.4839785174e-02    9.7481742188e+04
    1.4849780127e-02    9.7427781250e+04
    1.4859776013e-02    9.7373773438e+04
    1.4869770966e-02    9.7319632812e+04
    1.4879765920e-02    9.7265343750e+04
    1.4889761806e-02    9.7210937500e+04
    1.4899756759e-02    9.7156476562e+04
    1.4909751713e-02    9.7102085938e+04
    1.4919747598e-02    9.7047789062e+04
    1.4929742552e-02    9.6993679688e+04
    1.4939737506e-02    9.6939773438e+04
    1.4949733391e-02    9.6886195312e+04
    1.4959998429e-02    9.6831710938e+04
    1.4969993383e-02    9.6779242188e+04
    1.4979988337e-02    9.6727335938e+04
    1.4989983290e-02    9.6676007812e+04
    1.4999979176e-02    9.6625281250e+04
    1.5009974129e-02    9.6574968750e+04
    1.5019969083e-02    9.6524914062e+04
    1.5029964037e-02    9.6475101562e+04
    1.5039958991e-02    9.6425406250e+04
    1.5049953945e-02    9.6375406250e+04
    1.5059948899e-02    9.6325007812e+04
    1.5069943853e-02    9.6274460938e+04
    1.5079938807e-02    9.6223726562e+04
    1.5089933760e-02    9.6172593750e+04
    1.5099928714e-02    9.6121164062e+04
    1.5109923668e-02    9.6069750000e+04
    1.5119918622e-02    9.6018375000e+04
    1.5129913576e-02    9.5967148438e+04
    1.5139909461e-02    9.5916343750e+04
    1.5149904415e-02    9.5866148438e+04
    1.5159899369e-02    9.5816539062e+04
    1.5169894323e-02    9.5767585938e+04
    1.5179890208e-02    9.5719218750e+04
    1.5189886093e-02    9.5671351562e+04
    1.5199881978e-02    9.5623882812e+04
    1.5209877864e-02    9.5576710938e+04
    1.5219874680e-02    9.5529726562e+04
    1.5229871497e-02    9.5482882812e+04
    1.5239868313e-02    9.5436085938e+04
    1.5249865130e-02    9.5389125000e+04
    1.5259862877e-02    9.5341820312e+04
    1.5269860625e-02    9.5294093750e+04
    1.5279858373e-02    9.5246039062e+04
    1.5289857052e-02    9.5197804688e+04
    1.5299854800e-02    9.5149539062e+04
    1.5309853479e-02    9.5101382812e+04
    1.5319852158e-02    9.5053406250e+04
    1.5329851769e-02    9.5005648438e+04
    1.5339851379e-02    9.4958195312e+04
    1.5349850990e-02    9.4911335938e+04
    1.5359851532e-02    9.4865195312e+04
    1.5369853005e-02    9.4819679688e+04
    1.5379854478e-02    9.4774726562e+04
    1.5389855020e-02    9.4730367188e+04
    1.5399857424e-02    9.4686343750e+04
    1.5409859829e-02    9.4642273438e+04
    1.5419862233e-02    9.4598218750e+04
    1.5429864638e-02    9.4554242188e+04
    1.5439867973e-02    9.4509960938e+04
    1.5449872240e-02    9.4465085938e+04
    1.5459876508e-02    9.4419750000e+04
    1.5469880775e-02    9.4374054688e+04
    1.5479886904e-02    9.4328054688e+04
    1.5489893034e-02    9.4282101562e+04
    1.5499899164e-02    9.4236507812e+04
    1.5509906225e-02    9.4191351562e+04
    1.5519912355e-02    9.4146742188e+04
    1.5529919416e-02    9.4102820312e+04
    1.5539926477e-02    9.4059664062e+04
    1.5549934469e-02    9.4017335938e+04
    1.5559941530e-02    9.3975687500e+04
    1.5569949523e-02    9.3934406250e+04
    1.5579959378e-02    9.3893117188e+04
    1.5589969233e-02    9.3851617188e+04
    1.5599980019e-02    9.3809773438e+04
    1.5609990805e-02    9.3767445312e+04
    1.5619732440e-02    9.3725718750e+04
    1.5629746020e-02    9.3682335938e+04
    1.5639759600e-02    9.3638679688e+04
    1.5649773180e-02    9.3594929688e+04
    1.5659788623e-02    9.3551335938e+04
    1.5669804066e-02    9.3508187500e+04
    1.5679819509e-02    9.3465750000e+04
    1.5689838678e-02    9.3424148438e+04
    1.5699855983e-02    9.3383437500e+04
    1.5709875152e-02    9.3343476562e+04
    1.5719894320e-02    9.3303914062e+04
    1.5729915351e-02    9.3264585938e+04
    1.5739936382e-02    9.3225437500e+04
    1.5749959275e-02    9.3186125000e+04
    1.5759980306e-02    9.3146226562e+04
    1.5769733116e-02    9.3106789062e+04
    1.5779756010e-02    9.3065742188e+04
    1.5789780766e-02    9.3024179688e+04
    1.5799807385e-02    9.2982351562e+04
    1.5809834003e-02    9.2940789062e+04
    1.5819860622e-02    9.2899710938e+04
    1.5829890966e-02    9.2859164062e+04
    1.5839921311e-02    9.2819312500e+04
    1.5849953517e-02    9.2780320312e+04
    1.5859987587e-02    9.2742148438e+04
    1.5869751573e-02    9.2705562500e+04
    1.5879787505e-02    9.2668335938e+04
    1.5889825299e-02    9.2631132812e+04
    1.5899864957e-02    9.2593523438e+04
    1.5909904614e-02    9.2555367188e+04
    1.5919946134e-02    9.2516726562e+04
    1.5929987654e-02    9.2477523438e+04
    1.5939759091e-02    9.2438820312e+04
    1.5949806198e-02    9.2398851562e+04
    1.5959851444e-02    9.2359156250e+04
    1.5969898552e-02    9.2320000000e+04
    1.5979949385e-02    9.2281664062e+04
    1.5989730135e-02    9.2245273438e+04
    1.5999784693e-02    9.2208554688e+04
    1.6009839252e-02    9.2172429688e+04
    1.6019895673e-02    9.2136851562e+04
    1.6029953957e-02    9.2101492188e+04
    1.6039742157e-02    9.2066687500e+04
    1.6049804166e-02    9.2030250000e+04
    1.6059868038e-02    9.1993273438e+04
    1.6069931909e-02    9.1955781250e+04
    1.6079997644e-02    9.1917835938e+04
    1.6089795157e-02    9.1880742188e+04
    1.6099868342e-02    9.1842851562e+04
    1.6109939665e-02    9.1805476562e+04
    1.6119742766e-02    9.1769898438e+04
    1.6129817814e-02    9.1734242188e+04
    1.6139894724e-02    9.1699382812e+04
    1.6149977222e-02    9.1665031250e+04
    1.6159785911e-02    9.1631882812e+04
    1.6169870272e-02    9.1597812500e+04
    1.6179954633e-02    9.1563351562e+04
    1.6189770773e-02    9.1529226562e+04
    1.6199860722e-02    9.1493531250e+04
    1.6209954396e-02    9.1457351562e+04
    1.6219774261e-02    9.1421945312e+04
    1.6229867935e-02    9.1385687500e+04
    1.6239965335e-02    9.1349867188e+04
    1.6249792650e-02    9.1315585938e+04
    1.6259897500e-02    9.1281125000e+04
    1.6269726679e-02    9.1248429688e+04
    1.6279831529e-02    9.1215414062e+04
    1.6289938241e-02    9.1182617188e+04
    1.6299778596e-02    9.1150695312e+04
    1.6309890896e-02    9.1117648438e+04
    1.6319733113e-02    9.1084992188e+04
    1.6329849139e-02    9.1050851562e+04
    1.6339965165e-02    9.1016273438e+04
    1.6349812970e-02    9.0982414062e+04
    1.6359938309e-02    9.0947773438e+04
    1.6369786114e-02    9.0914531250e+04
    1.6379913315e-02    9.0880992188e+04
    1.6389768571e-02    9.0848976562e+04
    1.6399899498e-02    9.0816773438e+04
    1.6409764066e-02    9.0785960938e+04
    1.6419900581e-02    9.0754429688e+04
    1.6429763287e-02    9.0723585938e+04
    1.6439907253e-02    9.0691617188e+04
    1.6449779272e-02    9.0660101562e+04
    1.6459925100e-02    9.0627132812e+04
    1.6469798982e-02    9.0594742188e+04
    1.6479944810e-02    9.0561656250e+04
    1.6489818692e-02    9.0529789062e+04
    1.6499975696e-02    9.0497351562e+04
    1.6509858891e-02    9.0466343750e+04
    1.6519743949e-02    9.0436039062e+04
    1.6529902816e-02    9.0405414062e+04
    1.6539787874e-02    9.0375773438e+04
    1.6549944878e-02    9.0345210938e+04
    1.6559837386e-02    9.0315226562e+04
    1.6569731757e-02    9.0284976562e+04
    1.6579903662e-02    9.0253585938e+04
    1.6589803621e-02    9.0222781250e+04
    1.6599975526e-02    9.0190992188e+04
    1.6609879211e-02    9.0160312500e+04
    1.6619784757e-02    9.0130218750e+04
    1.6629964113e-02    9.0099773438e+04
    1.6639869660e-02    9.0070445312e+04
    1.6649784520e-02    9.0041554688e+04
    1.6659973189e-02    9.0012250000e+04
    1.6669889912e-02    8.9983664062e+04
    1.6679810360e-02    8.9954812500e+04
    1.6689728945e-02    8.9925726562e+04
    1.6699925065e-02    8.9895585938e+04
    1.6709854826e-02    8.9866070312e+04
    1.6719780862e-02    8.9836648438e+04
    1.6729986295e-02    8.9806695312e+04
    1.6739916056e-02    8.9777843750e+04
    1.6749843955e-02    8.9749367188e+04
    1.6759781167e-02    8.9721398438e+04
    1.6769723967e-02    8.9693757812e+04
    1.6779942438e-02    8.9665304688e+04
    1.6789885238e-02    8.9637476562e+04
    1.6799829900e-02    8.9609585938e+04
    1.6809770837e-02    8.9581492188e+04
    1.6819994897e-02    8.9552398438e+04
    1.6829945147e-02    8.9524101562e+04
    1.6839899123e-02    8.9496101562e+04
    1.6849860549e-02    8.9468398438e+04
    1.6859821975e-02    8.9440976562e+04
    1.6869781539e-02    8.9413835938e+04
    1.6879742965e-02    8.9386914062e+04
    1.6889983788e-02    8.9359460938e+04
    1.6899947077e-02    8.9332789062e+04
    1.6909917817e-02    8.9306007812e+04
    1.6919894144e-02    8.9279054688e+04
    1.6929870471e-02    8.9252085938e+04
    1.6939852387e-02    8.9225195312e+04
    1.6949834302e-02    8.9198351562e+04
    1.6959814355e-02    8.9171679688e+04
    1.6969801858e-02    8.9145304688e+04
    1.6979791224e-02    8.9119226562e+04
    1.6989780590e-02    8.9093351562e+04
    1.6999777406e-02    8.9067601562e+04
    1.7009774223e-02    8.9041843750e+04
    1.7019772902e-02    8.9015992188e+04
    1.7029779032e-02    8.8990164062e+04
    1.7039787024e-02    8.8964382812e+04
    1.7049795017e-02    8.8938531250e+04
    1.7059806734e-02    8.8912710938e+04
    1.7069818452e-02    8.8887179688e+04
    1.7079830170e-02    8.8861992188e+04
    1.7089849338e-02    8.8836906250e+04
    1.7099870369e-02    8.8811875000e+04
    1.7109896988e-02    8.8786945312e+04
    1.7119927332e-02    8.8762054688e+04
    1.7129955813e-02    8.8737156250e+04
    1.7139984295e-02    8.8712335938e+04
    1.7149737105e-02    8.8688218750e+04
    1.7159769312e-02    8.8663429688e+04
    1.7169803381e-02    8.8638812500e+04
    1.7179841176e-02    8.8614414062e+04
    1.7189880833e-02    8.8590054688e+04
    1.7199922353e-02    8.8565789062e+04
    1.7209967598e-02    8.8541820312e+04
    1.7219729722e-02    8.8518687500e+04
    1.7229771242e-02    8.8494773438e+04
    1.7239816487e-02    8.8470773438e+04
    1.7249865457e-02    8.8446960938e+04
    1.7259916291e-02    8.8423250000e+04
    1.7269972712e-02    8.8399562500e+04
    1.7279747874e-02    8.8376695312e+04
    1.7289806157e-02    8.8353351562e+04
    1.7299862579e-02    8.8330093750e+04
    1.7309913412e-02    8.8307000000e+04
    1.7319958657e-02    8.8284101562e+04
    1.7329998314e-02    8.8261179688e+04
    1.7339752987e-02    8.8238851562e+04
    1.7349783331e-02    8.8216070312e+04
    1.7359808087e-02    8.8193476562e+04
    1.7369830981e-02    8.8170906250e+04
    1.7379982397e-02    8.8148117188e+04
    1.7389738932e-02    8.8126367188e+04
    1.7399949953e-02    8.8103726562e+04
    1.7409730703e-02    8.8082125000e+04
    1.7419967800e-02    8.8059617188e+04
    1.7429744825e-02    8.8038210938e+04
    1.7439970747e-02    8.8015851562e+04
    1.7449714243e-02    8.7994648438e+04
    1.7459908500e-02    8.7972492188e+04
    1.7469914630e-02    8.7950781250e+04
    1.7479723319e-02    8.7929656250e+04
    1.7489986494e-02    8.7907789062e+04
    1.7499703914e-02    8.7887125000e+04
    1.7509873956e-02    8.7865429688e+04
    1.7519822344e-02    8.7844351562e+04
    1.7529880628e-02    8.7823273438e+04
    1.7539700493e-02    8.7802742188e+04
    1.7549978569e-02    8.7781281250e+04
    1.7559997737e-02    8.7760429688e+04
    1.7569757998e-02    8.7740210938e+04
    1.7579974607e-02    8.7719179688e+04
    1.7589924857e-02    8.7698851562e+04
    1.7599951476e-02    8.7678468750e+04
    1.7609693110e-02    8.7658664062e+04
    1.7619874328e-02    8.7638085938e+04
    1.7629738897e-02    8.7618304688e+04
    1.7639739439e-02    8.7598132812e+04
    1.7649946734e-02    8.7577632812e+04
    1.7659751698e-02    8.7558148438e+04
    1.7669802532e-02    8.7538312500e+04
    1.7679860815e-02    8.7518523438e+04
    1.7689937726e-02    8.7498789062e+04
    1.7699766904e-02    8.7479625000e+04
    1.7709868029e-02    8.7459937500e+04
    1.7719985917e-02    8.7440351562e+04
    1.7729859799e-02    8.7421437500e+04
    1.7739742994e-02    8.7402500000e+04
    1.7749888822e-02    8.7383023438e+04
    1.7759777606e-02    8.7364210938e+04
    1.7769929022e-02    8.7345117188e+04
    1.7779823393e-02    8.7326515625e+04
    1.7789978534e-02    8.7307421875e+04
    1.7799872905e-02    8.7289023438e+04
    1.7809769139e-02    8.7270757812e+04
    1.7819926143e-02    8.7251968750e+04
    1.7829822376e-02    8.7233734375e+04
    1.7839981243e-02    8.7215226562e+04
    1.7849879339e-02    8.7197257812e+04
    1.7859775573e-02    8.7179296875e+04
    1.7869934440e-02    8.7160984375e+04
    1.7879830673e-02    8.7143226562e+04
    1.7889989540e-02    8.7125046875e+04
    1.7899887636e-02    8.7107453125e+04
    1.7909785733e-02    8.7090000000e+04
    1.7919944599e-02    8.7072109375e+04
    1.7929842696e-02    8.7054703125e+04
    1.7939999700e-02    8.7037023438e+04
    1.7949897796e-02    8.7019937500e+04
    1.7959794030e-02    8.7002851562e+04
    1.7969952896e-02    8.6985359375e+04
    1.7979849130e-02    8.6968476562e+04
    1.7989747226e-02    8.6951710938e+04
    1.7999904230e-02    8.6934523438e+04
    1.8009802327e-02    8.6917867188e+04
    1.8019961193e-02    8.6900851562e+04
    1.8029859290e-02    8.6884343750e+04
    1.8039759248e-02    8.6867960938e+04
    1.8049919978e-02    8.6851242188e+04
    1.8059823662e-02    8.6834937500e+04
    1.8069988117e-02    8.6818281250e+04
    1.8079893664e-02    8.6802242188e+04
    1.8089801073e-02    8.6786289062e+04
    1.8099971116e-02    8.6769914062e+04
    1.8109882250e-02    8.6754015625e+04
    1.8119798973e-02    8.6738257812e+04
    1.8129982054e-02    8.6722187500e+04
    1.8139909953e-02    8.6706601562e+04
    1.8149837852e-02    8.6691062500e+04
    1.8159771338e-02    8.6675562500e+04
    1.8169974908e-02    8.6659734375e+04
    1.8179923296e-02    8.6644453125e+04
    1.8189877272e-02    8.6629226562e+04
    1.8199846148e-02    8.6613992188e+04
    1.8209822476e-02    8.6598882812e+04
    1.8219811842e-02    8.6583914062e+04
    1.8229817972e-02    8.6568914062e+04
    1.8239844590e-02    8.6553898438e+04
    1.8249887973e-02    8.6539031250e+04
    1.8259942532e-02    8.6524273438e+04
    1.8269998953e-02    8.6509531250e+04
    1.8279792741e-02    8.6495234375e+04
    1.8289865926e-02    8.6480640625e+04
    1.8299978226e-02    8.6466062500e+04
    1.8309857696e-02    8.6451859375e+04
    1.8319752067e-02    8.6437781250e+04
    1.8329918385e-02    8.6423445312e+04
    1.8339816481e-02    8.6409476562e+04
    1.8349993974e-02    8.6395187500e+04
    1.8359920010e-02    8.6381429688e+04
    1.8369872123e-02    8.6367679688e+04
    1.8379857764e-02    8.6353898438e+04
    1.8389869481e-02    8.6340234375e+04
    1.8399897963e-02    8.6326648438e+04
    1.8409935758e-02    8.6313062500e+04
    1.8419979140e-02    8.6299578125e+04
    1.8429771066e-02    8.6286570312e+04
    1.8439855427e-02    8.6273171875e+04
    1.8449958414e-02    8.6259796875e+04
    1.8459796906e-02    8.6246914062e+04
    1.8469929695e-02    8.6233718750e+04
    1.8479809165e-02    8.6220875000e+04
    1.8489977345e-02    8.6207843750e+04
    1.8499875441e-02    8.6195281250e+04
    1.8509792164e-02    8.6182632812e+04
    1.8519727513e-02    8.6169976562e+04
    1.8529957160e-02    8.6157203125e+04
    1.8539922312e-02    8.6144898438e+04
    1.8549900502e-02    8.6132515625e+04
    1.8559889868e-02    8.6120171875e+04
    1.8569886684e-02    8.6107976562e+04
    1.8579887226e-02    8.6095859375e+04
    1.8589893356e-02    8.6083789062e+04
    1.8599918112e-02    8.6071812500e+04
    1.8609963357e-02    8.6059875000e+04
    1.8619742244e-02    8.6048289062e+04
    1.8629802391e-02    8.6036492188e+04
    1.8639868125e-02    8.6024835938e+04
    1.8649939448e-02    8.6013187500e+04
    1.8659733236e-02    8.6001875000e+04
    1.8669810146e-02    8.5990390625e+04
    1.8679896370e-02    8.5979039062e+04
    1.8689993769e-02    8.5967687500e+04
    1.8699822947e-02    8.5956703125e+04
    1.8709938973e-02    8.5945492188e+04
    1.8719781190e-02    8.5934648438e+04
    1.8729904667e-02    8.5923601562e+04
    1.8739752471e-02    8.5912960938e+04
    1.8749883398e-02    8.5902031250e+04
    1.8759736791e-02    8.5891476562e+04
    1.8769878894e-02    8.5880781250e+04
    1.8779747188e-02    8.5870421875e+04
    1.8789898604e-02    8.5859773438e+04
    1.8799772486e-02    8.5849515625e+04
    1.8809933215e-02    8.5839101562e+04
    1.8819814548e-02    8.5829039062e+04
    1.8829980865e-02    8.5818726562e+04
    1.8839867786e-02    8.5808804688e+04
    1.8849754706e-02    8.5798953125e+04
    1.8859928474e-02    8.5788851562e+04
    1.8869820982e-02    8.5779140625e+04
    1.8879996613e-02    8.5769273438e+04
    1.8889892846e-02    8.5759703125e+04
    1.8899787217e-02    8.5750226562e+04
    1.8909966573e-02    8.5740648438e+04
    1.8919860944e-02    8.5731343750e+04
    1.8929757178e-02    8.5722046875e+04
    1.8939934671e-02    8.5712656250e+04
    1.8949829042e-02    8.5703664062e+04
    1.8959725276e-02    8.5694664062e+04
    1.8969906494e-02    8.5685445312e+04
    1.8979802728e-02    8.5676625000e+04
    1.8989985809e-02    8.5667640625e+04
    1.8999883905e-02    8.5658960938e+04
    1.9009783864e-02    8.5650382812e+04
    1.9019966945e-02    8.5641617188e+04
    1.9029866904e-02    8.5633101562e+04
    1.9039768726e-02    8.5624726562e+04
    1.9049955532e-02    8.5616328125e+04
    1.9059857354e-02    8.5608164062e+04
    1.9069762900e-02    8.5599929688e+04
    1.9079949707e-02    8.5591656250e+04
    1.9089855254e-02    8.5583789062e+04
    1.9099762663e-02    8.5575914062e+04
    1.9109953195e-02    8.5567820312e+04
    1.9119860604e-02    8.5560085938e+04
    1.9129769877e-02    8.5552460938e+04
    1.9139964134e-02    8.5544695312e+04
    1.9149875268e-02    8.5537218750e+04
    1.9159786403e-02    8.5529781250e+04
    1.9169982523e-02    8.5522179688e+04
    1.9179895520e-02    8.5514937500e+04
    1.9189810380e-02    8.5507843750e+04
    1.9199725240e-02    8.5500750000e+04
    1.9209923223e-02    8.5493445312e+04
    1.9219839945e-02    8.5486500000e+04
    1.9229756668e-02    8.5479726562e+04
    1.9239958376e-02    8.5472765625e+04
    1.9249876961e-02    8.5466031250e+04
    1.9259795547e-02    8.5459406250e+04
    1.9269997254e-02    8.5452687500e+04
    1.9279917702e-02    8.5446250000e+04
    1.9289838150e-02    8.5439898438e+04
    1.9299758598e-02    8.5433593750e+04
    1.9309962168e-02    8.5427171875e+04
    1.9319882616e-02    8.5421070312e+04
    1.9329804927e-02    8.5415070312e+04
    1.9339727238e-02    8.5409078125e+04
    1.9349932671e-02    8.5402968750e+04
    1.9359854981e-02    8.5397164062e+04
    1.9369777292e-02    8.5391460938e+04
    1.9379984587e-02    8.5385625000e+04
    1.9389906898e-02    8.5380039062e+04
    1.9399831071e-02    8.5374593750e+04
    1.9409753382e-02    8.5369218750e+04
    1.9419960678e-02    8.5363757812e+04
    1.9429884851e-02    8.5358507812e+04
    1.9439809024e-02    8.5353304688e+04
[...]
    1.1513994634e-01    1.0121494531e+05
    1.1514985561e-01    1.0121494531e+05
    1.1515975744e-01    1.0121493750e+05
    1.1516997218e-01    1.0121493750e+05
    1.1517988145e-01    1.0121492969e+05
    1.1518978328e-01    1.0121492969e+05
    1.1519999802e-01    1.0121491406e+05
    1.1520990729e-01    1.0121491406e+05
    1.1521980911e-01    1.0121491406e+05
    1.1522971839e-01    1.0121491406e+05
    1.1523993313e-01    1.0121490625e+05
    1.1524983495e-01    1.0121490625e+05
    1.1525974423e-01    1.0121489844e+05
    1.1526995897e-01    1.0121489844e+05
    1.1527986079e-01    1.0121489844e+05
    1.1528977007e-01    1.0121488281e+05
    1.1529998481e-01    1.0121488281e+05
    1.1530988663e-01    1.0121487500e+05
    1.1531979591e-01    1.0121487500e+05
    1.1532969773e-01    1.0121486719e+05
    1.1533991247e-01    1.0121486719e+05
    1.1534982175e-01    1.0121486719e+05
    1.1535972357e-01    1.0121485156e+05
    1.1536994576e-01    1.0121485156e+05
    1.1537984759e-01    1.0121485156e+05
    1.1538975686e-01    1.0121485156e+05
    1.1539997160e-01    1.0121484375e+05
    1.1540987343e-01    1.0121483594e+05
    1.1541978270e-01    1.0121483594e+05
    1.1542999744e-01    1.0121483594e+05
    1.1543989927e-01    1.0121483594e+05
    1.1544980854e-01    1.0121482031e+05
    1.1545971036e-01    1.0121482031e+05
    1.1546992511e-01    1.0121481250e+05
    1.1547983438e-01    1.0121481250e+05
    1.1548973620e-01    1.0121480469e+05
    1.1549995095e-01    1.0121480469e+05
    1.1550986022e-01    1.0121478906e+05
    1.1551976204e-01    1.0121478906e+05
    1.1552997679e-01    1.0121478906e+05
    1.1553988606e-01    1.0121478906e+05
    1.1554978788e-01    1.0121478125e+05
    1.1555969715e-01    1.0121478125e+05
    1.1556991190e-01    1.0121477344e+05
    1.1557981372e-01    1.0121477344e+05
    1.1558972299e-01    1.0121477344e+05
    1.1559993774e-01    1.0121477344e+05
    1.1560984701e-01    1.0121475781e+05
    1.1561974883e-01    1.0121475781e+05
    1.1562996358e-01    1.0121475000e+05
    1.1563987285e-01    1.0121475000e+05
    1.1564977467e-01    1.0121474219e+05
    1.1565998942e-01    1.0121474219e+05
    1.1566989869e-01    1.0121472656e+05
    1.1567980051e-01    1.0121472656e+05
    1.1568970978e-01    1.0121472656e+05
    1.1569992453e-01    1.0121472656e+05
    1.1570982635e-01    1.0121471875e+05
    1.1571973562e-01    1.0121471875e+05
    1.1572995037e-01    1.0121471094e+05
    1.1573985219e-01    1.0121471094e+05
    1.1574976146e-01    1.0121471094e+05
    1.1575997621e-01    1.0121471094e+05
    1.1576987803e-01    1.0121469531e+05
    1.1577978730e-01    1.0121469531e+05
    1.1578968912e-01    1.0121468750e+05
    1.1579990387e-01    1.0121468750e+05
    1.1580981314e-01    1.0121467969e+05
    1.1581971496e-01    1.0121467969e+05
    1.1582993716e-01    1.0121466406e+05
    1.1583983898e-01    1.0121466406e+05
    1.1584974825e-01    1.0121466406e+05
    1.1585996300e-01    1.0121466406e+05
    1.1586986482e-01    1.0121465625e+05
    1.1587977409e-01    1.0121465625e+05
    1.1588998884e-01    1.0121464844e+05
    1.1589989066e-01    1.0121464844e+05
    1.1590979993e-01    1.0121464844e+05
    1.1591970176e-01    1.0121464844e+05
    1.1592991650e-01    1.0121463281e+05
    1.1593982577e-01    1.0121463281e+05
    1.1594972759e-01    1.0121463281e+05
    1.1595994234e-01    1.0121462500e+05
    1.1596985161e-01    1.0121461719e+05
    1.1597975343e-01    1.0121461719e+05
    1.1598996818e-01    1.0121460156e+05
    1.1599987745e-01    1.0121460156e+05
    1.1600977927e-01    1.0121460156e+05
    1.1601999402e-01    1.0121460156e+05
    1.1602990329e-01    1.0121459375e+05
    1.1603980511e-01    1.0121459375e+05
    1.1604971439e-01    1.0121458594e+05
    1.1605992913e-01    1.0121458594e+05
    1.1606983840e-01    1.0121458594e+05
    1.1607974023e-01    1.0121458594e+05
    1.1608995497e-01    1.0121458594e+05
    1.1609986424e-01    1.0121457031e+05
    1.1610976607e-01    1.0121457031e+05
    1.1611998081e-01    1.0121456250e+05
    1.1612989008e-01    1.0121455469e+05
    1.1613979191e-01    1.0121455469e+05
    1.1614970118e-01    1.0121453906e+05
    1.1615991592e-01    1.0121453906e+05
    1.1616981775e-01    1.0121453906e+05
    1.1617972702e-01    1.0121453906e+05
    1.1618994176e-01    1.0121453906e+05
    1.1619984359e-01    1.0121453125e+05
    1.1620975286e-01    1.0121453125e+05
    1.1621996760e-01    1.0121452344e+05
    1.1622986943e-01    1.0121452344e+05
    1.1623977870e-01    1.0121452344e+05
    1.1624999344e-01    1.0121452344e+05
    1.1625989527e-01    1.0121452344e+05
    1.1626980454e-01    1.0121450781e+05
    1.1627970636e-01    1.0121450781e+05
    1.1628992856e-01    1.0121450000e+05
    1.1629983038e-01    1.0121449219e+05
    1.1630973965e-01    1.0121449219e+05
    1.1631995440e-01    1.0121447656e+05
    1.1632985622e-01    1.0121447656e+05
    1.1633976549e-01    1.0121447656e+05
    1.1634998024e-01    1.0121447656e+05
    1.1635988206e-01    1.0121446875e+05
    1.1636979133e-01    1.0121446875e+05
    1.1637969315e-01    1.0121446094e+05
    1.1638990790e-01    1.0121446094e+05
    1.1639981717e-01    1.0121446094e+05
    1.1640971899e-01    1.0121446094e+05
    1.1641993374e-01    1.0121446094e+05
    1.1642984301e-01    1.0121444531e+05
    1.1643974483e-01    1.0121444531e+05
    1.1644995958e-01    1.0121443750e+05
    1.1645986885e-01    1.0121442969e+05
    1.1646977067e-01    1.0121442969e+05
    1.1647999287e-01    1.0121441406e+05
    1.1648989469e-01    1.0121441406e+05
    1.1649980396e-01    1.0121441406e+05
    1.1650970578e-01    1.0121441406e+05
    1.1651992053e-01    1.0121440625e+05
    1.1652982980e-01    1.0121440625e+05
    1.1653973162e-01    1.0121440625e+05
    1.1654994637e-01    1.0121439844e+05
    1.1655985564e-01    1.0121439844e+05
    1.1656975746e-01    1.0121439844e+05
    1.1657997221e-01    1.0121439844e+05
    1.1658988148e-01    1.0121438281e+05
    1.1659978330e-01    1.0121437500e+05
    1.1660969257e-01    1.0121436719e+05
    1.1661990732e-01    1.0121436719e+05
    1.1662980914e-01    1.0121435156e+05
    1.1663971841e-01    1.0121435156e+05
    1.1664993316e-01    1.0121435156e+05
    1.1665983498e-01    1.0121435156e+05
    1.1666974425e-01    1.0121435156e+05
    1.1667995900e-01    1.0121435156e+05
    1.1668986082e-01    1.0121434375e+05
    1.1669977009e-01    1.0121434375e+05
    1.1670998484e-01    1.0121433594e+05
    1.1671989411e-01    1.0121433594e+05
    1.1672979593e-01    1.0121433594e+05
    1.1673970520e-01    1.0121432031e+05
    1.1674991995e-01    1.0121431250e+05
    1.1675982177e-01    1.0121431250e+05
    1.1676973104e-01    1.0121430469e+05
    1.1677994579e-01    1.0121430469e+05
    1.1678984761e-01    1.0121428906e+05
    1.1679975688e-01    1.0121428906e+05
    1.1680997163e-01    1.0121428906e+05
    1.1681987345e-01    1.0121428906e+05
    1.1682978272e-01    1.0121428906e+05
    1.1683999747e-01    1.0121428125e+05
    1.1684989929e-01    1.0121427344e+05
    1.1685980856e-01    1.0121427344e+05
    1.1686971039e-01    1.0121427344e+05
    1.1687992513e-01    1.0121427344e+05
    1.1688983440e-01    1.0121427344e+05
    1.1689973623e-01    1.0121427344e+05
    1.1690995842e-01    1.0121425781e+05
    1.1691986024e-01    1.0121425781e+05
    1.1692976952e-01    1.0121425781e+05
    1.1693998426e-01    1.0121425781e+05
    1.1694988608e-01    1.0121425000e+05
    1.1695979536e-01    1.0121425000e+05
    1.1696969718e-01    1.0121424219e+05
    1.1697991192e-01    1.0121424219e+05
    1.1698982120e-01    1.0121422656e+05
    1.1699972302e-01    1.0121422656e+05
    1.1700993776e-01    1.0121421875e+05
    1.1701984704e-01    1.0121421875e+05
    1.1702974886e-01    1.0121421094e+05
    1.1703996360e-01    1.0121421094e+05
    1.1704987288e-01    1.0121421094e+05
    1.1705977470e-01    1.0121421094e+05
    1.1706998944e-01    1.0121419531e+05
    1.1707989872e-01    1.0121419531e+05
    1.1708980054e-01    1.0121419531e+05
    1.1709970981e-01    1.0121419531e+05
    1.1710992455e-01    1.0121419531e+05
    1.1711983383e-01    1.0121419531e+05
    1.1712973565e-01    1.0121418750e+05
    1.1713995039e-01    1.0121418750e+05
    1.1714985967e-01    1.0121417969e+05
    1.1715976149e-01    1.0121416406e+05
    1.1716997623e-01    1.0121416406e+05
    1.1717988551e-01    1.0121415625e+05
    1.1718978733e-01    1.0121415625e+05
    1.1719969660e-01    1.0121414844e+05
    1.1720991135e-01    1.0121414844e+05
    1.1721981317e-01    1.0121414844e+05
    1.1722972244e-01    1.0121414844e+05
    1.1723993719e-01    1.0121413281e+05
    1.1724983901e-01    1.0121413281e+05
    1.1725974828e-01    1.0121412500e+05
    1.1726996303e-01    1.0121412500e+05
    1.1727986485e-01    1.0121412500e+05
    1.1728977412e-01    1.0121411719e+05
    1.1729998887e-01    1.0121411719e+05
    1.1730989069e-01    1.0121410156e+05
    1.1731979996e-01    1.0121410156e+05
    1.1732970178e-01    1.0121410156e+05
    1.1733992398e-01    1.0121410156e+05
    1.1734982580e-01    1.0121409375e+05
    1.1735973507e-01    1.0121409375e+05
    1.1736994982e-01    1.0121409375e+05
    1.1737985164e-01    1.0121408594e+05
    1.1738976091e-01    1.0121408594e+05
    1.1739997566e-01    1.0121408594e+05
    1.1740987748e-01    1.0121408594e+05
    1.1741978675e-01    1.0121407031e+05
    1.1743000150e-01    1.0121407031e+05
    1.1743990332e-01    1.0121406250e+05
    1.1744981259e-01    1.0121406250e+05
    1.1745971441e-01    1.0121405469e+05
    1.1746992916e-01    1.0121405469e+05
    1.1747983843e-01    1.0121405469e+05
    1.1748974025e-01    1.0121403906e+05
    1.1749995500e-01    1.0121403906e+05
    1.1750986427e-01    1.0121403906e+05
    1.1751976609e-01    1.0121403906e+05
    1.1752998829e-01    1.0121403906e+05
    1.1753989011e-01    1.0121403125e+05
    1.1754979938e-01    1.0121402344e+05
    1.1755970120e-01    1.0121402344e+05
    1.1756991595e-01    1.0121402344e+05
    1.1757982522e-01    1.0121402344e+05
    1.1758972704e-01    1.0121400781e+05
    1.1759994179e-01    1.0121400781e+05
    1.1760985106e-01    1.0121400000e+05
    1.1761975288e-01    1.0121400000e+05
    1.1762996763e-01    1.0121400000e+05
    1.1763987690e-01    1.0121399219e+05
    1.1764977872e-01    1.0121399219e+05
    1.1765999347e-01    1.0121397656e+05
    1.1766990274e-01    1.0121397656e+05
    1.1767980456e-01    1.0121397656e+05
    1.1768971384e-01    1.0121397656e+05
    1.1769992858e-01    1.0121396875e+05
    1.1770983040e-01    1.0121396875e+05
    1.1771973968e-01    1.0121396094e+05
    1.1772995442e-01    1.0121396094e+05
    1.1773985624e-01    1.0121396094e+05
    1.1774976552e-01    1.0121396094e+05
    1.1775998026e-01    1.0121394531e+05
    1.1776988953e-01    1.0121394531e+05
    1.1777979136e-01    1.0121393750e+05
    1.1778970063e-01    1.0121393750e+05
    1.1779991537e-01    1.0121393750e+05
    1.1780981719e-01    1.0121392969e+05
    1.1781972647e-01    1.0121392969e+05
    1.1782994121e-01    1.0121391406e+05
    1.1783984303e-01    1.0121391406e+05
    1.1784975231e-01    1.0121391406e+05
    1.1785996705e-01    1.0121391406e+05
    1.1786986887e-01    1.0121390625e+05
    1.1787977815e-01    1.0121390625e+05
    1.1788999289e-01    1.0121389844e+05
    1.1789989471e-01    1.0121389844e+05
    1.1790980399e-01    1.0121389844e+05
    1.1791970581e-01    1.0121389844e+05
    1.1792992055e-01    1.0121388281e+05
    1.1793982983e-01    1.0121388281e+05
    1.1794973165e-01    1.0121388281e+05
    1.1795995384e-01    1.0121387500e+05
    1.1796985567e-01    1.0121387500e+05
    1.1797976494e-01    1.0121386719e+05
    1.1798997968e-01    1.0121386719e+05
    1.1799988151e-01    1.0121385156e+05
    1.1800979078e-01    1.0121385156e+05
    1.1801969260e-01    1.0121385156e+05
    1.1802990735e-01    1.0121385156e+05
    1.1803981662e-01    1.0121384375e+05
    1.1804971844e-01    1.0121384375e+05
    1.1805993319e-01    1.0121383594e+05
    1.1806984246e-01    1.0121383594e+05
    1.1807974428e-01    1.0121383594e+05
    1.1808995903e-01    1.0121383594e+05
    1.1809986830e-01    1.0121383594e+05
    1.1810977012e-01    1.0121382031e+05
    1.1811998487e-01    1.0121382031e+05
    1.1812989414e-01    1.0121381250e+05
    1.1813979596e-01    1.0121381250e+05
    1.1814970523e-01    1.0121380469e+05
    1.1815991998e-01    1.0121380469e+05
    1.1816982925e-01    1.0121378906e+05
    1.1817973107e-01    1.0121378906e+05
    1.1818994582e-01    1.0121378906e+05
    1.1819985509e-01    1.0121378906e+05
    1.1820975691e-01    1.0121378125e+05
    1.1821997166e-01    1.0121378125e+05
    1.1822988093e-01    1.0121377344e+05
    1.1823978275e-01    1.0121377344e+05
    1.1824999750e-01    1.0121377344e+05
    1.1825990677e-01    1.0121377344e+05
    1.1826980859e-01    1.0121377344e+05
    1.1827971786e-01    1.0121375781e+05
    1.1828993261e-01    1.0121375781e+05
    1.1829983443e-01    1.0121375000e+05
    1.1830974370e-01    1.0121375000e+05
    1.1831995845e-01    1.0121374219e+05
    1.1832986027e-01    1.0121374219e+05
    1.1833976954e-01    1.0121374219e+05
    1.1834998429e-01    1.0121372656e+05
    1.1835989356e-01    1.0121372656e+05
    1.1836979538e-01    1.0121372656e+05
    1.1837970465e-01    1.0121372656e+05
    1.1838991940e-01    1.0121371875e+05
    1.1839982122e-01    1.0121371875e+05
    1.1840973049e-01    1.0121371094e+05
    1.1841994524e-01    1.0121371094e+05
    1.1842984706e-01    1.0121371094e+05
    1.1843975633e-01    1.0121371094e+05
    1.1844997108e-01    1.0121369531e+05
    1.1845987290e-01    1.0121369531e+05
    1.1846978217e-01    1.0121368750e+05
    1.1847999692e-01    1.0121368750e+05
    1.1848989874e-01    1.0121368750e+05
    1.1849980801e-01    1.0121367969e+05
    1.1850970984e-01    1.0121367969e+05
    1.1851992458e-01    1.0121366406e+05
    1.1852983385e-01    1.0121366406e+05
    1.1853973567e-01    1.0121366406e+05
    1.1854995787e-01    1.0121366406e+05
    1.1855985969e-01    1.0121366406e+05
    1.1856976897e-01    1.0121365625e+05
    1.1857998371e-01    1.0121365625e+05
    1.1858988553e-01    1.0121364844e+05
    1.1859979481e-01    1.0121364844e+05
    1.1860969663e-01    1.0121364844e+05
    1.1861991137e-01    1.0121364844e+05
    1.1862982064e-01    1.0121363281e+05
    1.1863972247e-01    1.0121363281e+05
    1.1864993721e-01    1.0121362500e+05
    1.1865984648e-01    1.0121362500e+05
    1.1866974831e-01    1.0121361719e+05
    1.1867996305e-01    1.0121361719e+05
    1.1868987232e-01    1.0121361719e+05
    1.1869977415e-01    1.0121360156e+05
    1.1870998889e-01    1.0121360156e+05
    1.1871989816e-01    1.0121360156e+05
    1.1872980744e-01    1.0121360156e+05
    1.1873970926e-01    1.0121359375e+05
    1.1874992400e-01    1.0121359375e+05
    1.1875983328e-01    1.0121358594e+05
    1.1876973510e-01    1.0121358594e+05
    1.1877994984e-01    1.0121358594e+05
    1.1878985912e-01    1.0121358594e+05
    1.1879976094e-01    1.0121358594e+05
    1.1880997568e-01    1.0121357031e+05
    1.1881988496e-01    1.0121357031e+05
    1.1882978678e-01    1.0121356250e+05
    1.1883969605e-01    1.0121356250e+05
    1.1884991080e-01    1.0121355469e+05
    1.1885981262e-01    1.0121355469e+05
    1.1886972189e-01    1.0121353906e+05
    1.1887993664e-01    1.0121353906e+05
    1.1888983846e-01    1.0121353906e+05
    1.1889974773e-01    1.0121353906e+05
    1.1890996248e-01    1.0121353906e+05
    1.1891987175e-01    1.0121353125e+05
    1.1892977357e-01    1.0121353125e+05
    1.1893998832e-01    1.0121352344e+05
    1.1894989759e-01    1.0121352344e+05
    1.1895979941e-01    1.0121352344e+05
    1.1896970868e-01    1.0121352344e+05
    1.1897992343e-01    1.0121352344e+05
    1.1898982525e-01    1.0121350781e+05
    1.1899973452e-01    1.0121350781e+05
    1.1900994927e-01    1.0121350000e+05
    1.1901985109e-01    1.0121350000e+05
    1.1902976036e-01    1.0121349219e+05
    1.1903997511e-01    1.0121349219e+05
    1.1904987693e-01    1.0121349219e+05
    1.1905978620e-01    1.0121347656e+05
    1.1906968802e-01    1.0121347656e+05
    1.1907990277e-01    1.0121347656e+05
    1.1908981204e-01    1.0121347656e+05
    1.1909972131e-01    1.0121346875e+05
    1.1910993606e-01    1.0121346875e+05
    1.1911983788e-01    1.0121346094e+05
    1.1912974715e-01    1.0121346094e+05
    1.1913996190e-01    1.0121346094e+05
    1.1914986372e-01    1.0121346094e+05
    1.1915977299e-01    1.0121346094e+05
    1.1916998774e-01    1.0121344531e+05
    1.1917988956e-01    1.0121344531e+05
    1.1918979883e-01    1.0121343750e+05
    1.1919970065e-01    1.0121343750e+05
    1.1920991540e-01    1.0121342969e+05
    1.1921982467e-01    1.0121342969e+05
    1.1922972649e-01    1.0121342969e+05
    1.1923994124e-01    1.0121341406e+05
    1.1924985051e-01    1.0121341406e+05
    1.1925975978e-01    1.0121341406e+05
    1.1926997453e-01    1.0121341406e+05
    1.1927987635e-01    1.0121340625e+05
    1.1928978562e-01    1.0121340625e+05
    1.1930000037e-01    1.0121339844e+05
    1.1930990219e-01    1.0121339844e+05
    1.1931981146e-01    1.0121339844e+05
    1.1932971328e-01    1.0121339844e+05
    1.1933992803e-01    1.0121339844e+05
    1.1934983730e-01    1.0121338281e+05
    1.1935973912e-01    1.0121338281e+05
    1.1936995387e-01    1.0121337500e+05
    1.1937986314e-01    1.0121337500e+05
    1.1938976496e-01    1.0121337500e+05
    1.1939997971e-01    1.0121336719e+05
    1.1940988898e-01    1.0121336719e+05
    1.1941979825e-01    1.0121335156e+05
    1.1942970008e-01    1.0121335156e+05
    1.1943991482e-01    1.0121335156e+05
    1.1944982409e-01    1.0121335156e+05
    1.1945972592e-01    1.0121334375e+05
    1.1946994066e-01    1.0121334375e+05
    1.1947984993e-01    1.0121334375e+05
    1.1948975176e-01    1.0121333594e+05
    1.1949996650e-01    1.0121333594e+05
    1.1950987577e-01    1.0121333594e+05
    1.1951977760e-01    1.0121333594e+05
    1.1952999234e-01    1.0121332031e+05
    1.1953990161e-01    1.0121332031e+05
    1.1954980344e-01    1.0121331250e+05
    1.1955971271e-01    1.0121331250e+05
    1.1956992745e-01    1.0121330469e+05
    1.1957983673e-01    1.0121330469e+05
    1.1958973855e-01    1.0121330469e+05
    1.1959995329e-01    1.0121328906e+05
    1.1960986257e-01    1.0121328906e+05
    1.1961976439e-01    1.0121328906e+05
    1.1962997913e-01    1.0121328906e+05
    1.1963988841e-01    1.0121328125e+05
    1.1964979023e-01    1.0121328125e+05
    1.1965969950e-01    1.0121328125e+05
    1.1966991425e-01    1.0121327344e+05
    1.1967981607e-01    1.0121327344e+05
    1.1968972534e-01    1.0121327344e+05
    1.1969994009e-01    1.0121327344e+05
    1.1970984191e-01    1.0121325781e+05
    1.1971975118e-01    1.0121325781e+05
    1.1972996593e-01    1.0121325000e+05
    1.1973987520e-01    1.0121325000e+05
    1.1974977702e-01    1.0121324219e+05
    1.1975999177e-01    1.0121324219e+05
    1.1976990104e-01    1.0121324219e+05
    1.1977980286e-01    1.0121322656e+05
    1.1978971213e-01    1.0121322656e+05
    1.1979992688e-01    1.0121322656e+05
    1.1980982870e-01    1.0121322656e+05
    1.1981973797e-01    1.0121322656e+05
    1.1982995272e-01    1.0121321875e+05
    1.1983985454e-01    1.0121321875e+05
    1.1984976381e-01    1.0121321094e+05
    1.1985997856e-01    1.0121321094e+05
    1.1986988783e-01    1.0121321094e+05
    1.1987978965e-01    1.0121321094e+05
    1.1988969892e-01    1.0121321094e+05
    1.1989991367e-01    1.0121319531e+05
    1.1990981549e-01    1.0121319531e+05
    1.1991972476e-01    1.0121319531e+05
    1.1992993951e-01    1.0121318750e+05
    1.1993984133e-01    1.0121318750e+05
    1.1994975060e-01    1.0121317969e+05
    1.1995996535e-01    1.0121317969e+05
    1.1996986717e-01    1.0121316406e+05
    1.1997977644e-01    1.0121316406e+05
    1.1998999119e-01    1.0121316406e+05
    1.1999989301e-01    1.0121316406e+05
endcurve
