Curveplot
LS-DYNA keyword deck by LS-PrePost                          
Time
Pressure
Defined Connection
Pressure @ 17 #pts=14001
* Minval=     9.7482687500e+04 at time=         0.0273598284
* Maxval=     1.1007221094e+05 at time=         0.0216297656
    0.0000000000e+00    1.0120000000e+05
    9.9945518741e-06    1.0120000000e+05
    1.9937251636e-05    1.0120000000e+05
    2.9981119951e-05    1.0120000000e+05
    3.9990613004e-05    1.0120000000e+05
    4.9958107411e-05    1.0120000000e+05
    5.9975325712e-05    1.0120000000e+05
    6.9962748967e-05    1.0120000000e+05
    7.9948629718e-05    1.0120000000e+05
    8.9955690783e-05    1.0120000000e+05
    9.9996075733e-05    1.0120000000e+05
    1.0995083721e-04    1.0120000000e+05
    1.1990516941e-04    1.0120000000e+05
    1.2995697034e-04    1.0120000000e+05
    1.3998831855e-04    1.0120000000e+05
    1.4998408733e-04    1.0120000000e+05
    1.5992771660e-04    1.0120000000e+05
    1.6992723977e-04    1.0120000000e+05
    1.7997600662e-04    1.0120000000e+05
    1.8993351841e-04    1.0120000000e+05
    1.9991651061e-04    1.0120000000e+05
    2.0991558267e-04    1.0120000000e+05
    2.1992050461e-04    1.0120000000e+05
    2.2991994047e-04    1.0120000000e+05
    2.3990213231e-04    1.0120000000e+05
    2.4985350319e-04    1.0120000000e+05
    2.5992229348e-04    1.0120000000e+05
    2.6993974461e-04    1.0120000000e+05
    2.7989113005e-04    1.0120000000e+05
    2.8993628803e-04    1.0120000000e+05
    2.9989366885e-04    1.0120000000e+05
    3.0993044493e-04    1.0120000000e+05
    3.1985272653e-04    1.0120000000e+05
    3.2983563142e-04    1.0120000000e+05
    3.3987424104e-04    1.0120000000e+05
    3.4996462637e-04    1.0120000000e+05
    3.5989482421e-04    1.0120000000e+05
    3.6986012128e-04    1.0120000000e+05
    3.7985728704e-04    1.0120000000e+05
    3.8988015149e-04    1.0120000000e+05
    3.9992234088e-04    1.0120000000e+05
    4.0998242912e-04    1.0120000000e+05
    4.1980532114e-04    1.0120000000e+05
    4.2986837798e-04    1.0120000000e+05
    4.3993335566e-04    1.0120000000e+05
    4.4998669182e-04    1.0120000000e+05
    4.5975850662e-04    1.0120000000e+05
    4.6976812882e-04    1.0120000000e+05
    4.7974768677e-04    1.0120000000e+05
    4.8997643171e-04    1.0120000000e+05
    4.9987854436e-04    1.0120000000e+05
    5.0972634926e-04    1.0120000000e+05
    5.1982054720e-04    1.0120000000e+05
    5.2985793445e-04    1.0120000000e+05
    5.3982925601e-04    1.0120000000e+05
    5.4972438375e-04    1.0120000000e+05
    5.5987585802e-04    1.0120000000e+05
    5.6994706392e-04    1.0120000000e+05
    5.7992723305e-04    1.0120000000e+05
    5.8980454924e-04    1.0120000000e+05
    5.9994665207e-04    1.0120000000e+05
    6.0998141998e-04    1.0120000000e+05
    6.1989430105e-04    1.0120000000e+05
    6.2967120903e-04    1.0120000000e+05
    6.3972122734e-04    1.0120000000e+05
    6.4962799661e-04    1.0120000000e+05
    6.5976753831e-04    1.0120000000e+05
    6.6957430681e-04    1.0120000000e+05
    6.7987159127e-04    1.0120000000e+05
    6.8976142211e-04    1.0120000000e+05
    6.9961021654e-04    1.0120000000e+05
    7.0991413668e-04    1.0120000000e+05
    7.1974901948e-04    1.0120000000e+05
    7.2964635910e-04    1.0120000000e+05
    7.3997490108e-04    1.0120000000e+05
    7.4992445298e-04    1.0120000000e+05
    7.5993698556e-04    1.0120000000e+05
    7.6955853729e-04    1.0120000000e+05
    7.7965389937e-04    1.0120000000e+05
    7.8971136827e-04    1.0120000000e+05
    7.9970026854e-04    1.0120000000e+05
    8.0996658653e-04    1.0120000000e+05
    8.1999727990e-04    1.0120000000e+05
    8.2979945000e-04    1.0120000000e+05
    8.3979422925e-04    1.0120000000e+05
    8.4996270016e-04    1.0120000000e+05
    8.5989339277e-04    1.0120000000e+05
    8.6997967446e-04    1.0120000000e+05
    8.7982683908e-04    1.0120000000e+05
    8.8980927831e-04    1.0120000000e+05
    8.9990702691e-04    1.0120000000e+05
    9.0975314379e-04    1.0120000000e+05
    9.1969198547e-04    1.0120000000e+05
    9.2970283004e-04    1.0120000000e+05
    9.3976367498e-04    1.0120000000e+05
    9.4985181931e-04    1.0120000000e+05
    9.5994229196e-04    1.0120000000e+05
    9.6971821040e-04    1.0120000000e+05
    9.7974413075e-04    1.0120000000e+05
    9.8995794542e-04    1.0120000000e+05
    9.9977315404e-04    1.0120000000e+05
    1.0099282954e-03    1.0120000000e+05
    1.0198322125e-03    1.0120000000e+05
    1.0298682610e-03    1.0120000000e+05
    1.0398671729e-03    1.0120000000e+05
    1.0499776108e-03    1.0120000000e+05
    1.0598845547e-03    1.0120000000e+05
    1.0699348059e-03    1.0120000000e+05
    1.0798971634e-03    1.0120000000e+05
    1.0898105102e-03    1.0120000000e+05
    1.0998111684e-03    1.0120000000e+05
    1.1097689858e-03    1.0120000000e+05
    1.1197718559e-03    1.0120000000e+05
    1.1298272293e-03    1.0120000000e+05
    1.1398172937e-03    1.0120000000e+05
    1.1497782543e-03    1.0120000000e+05
    1.1598222191e-03    1.0120000000e+05
    1.1698466260e-03    1.0120000000e+05
    1.1799152708e-03    1.0120000000e+05
    1.1899080127e-03    1.0120000000e+05
    1.1999458075e-03    1.0120000000e+05
    1.2098613661e-03    1.0120000000e+05
    1.2198552722e-03    1.0120000000e+05
    1.2299328810e-03    1.0120000000e+05
    1.2398585677e-03    1.0120000000e+05
    1.2497884454e-03    1.0120000000e+05
    1.2598647736e-03    1.0120000000e+05
    1.2699648505e-03    1.0120000000e+05
    1.2798733078e-03    1.0120000000e+05
    1.2898159912e-03    1.0120000000e+05
    1.2998265447e-03    1.0120000000e+05
    1.3099325588e-03    1.0120000000e+05
    1.3197195949e-03    1.0120000000e+05
    1.3299096609e-03    1.0120000000e+05
    1.3397962321e-03    1.0120000000e+05
    1.3497347245e-03    1.0120000000e+05
    1.3597275829e-03    1.0120000000e+05
    1.3699932024e-03    1.0120000000e+05
    1.3797455467e-03    1.0120000000e+05
    1.3897607569e-03    1.0120000000e+05
    1.3998111244e-03    1.0120000000e+05
    1.4098949032e-03    1.0120000000e+05
    1.4199573779e-03    1.0120000000e+05
    1.4297909802e-03    1.0120000000e+05
    1.4399026986e-03    1.0120000000e+05
    1.4497417724e-03    1.0120000000e+05
    1.4599243877e-03    1.0120000000e+05
    1.4698121231e-03    1.0120000000e+05
    1.4797431650e-03    1.0120000000e+05
    1.4899957459e-03    1.0120000000e+05
    1.4999655541e-03    1.0120000000e+05
    1.5099764569e-03    1.0120000000e+05
    1.5196934110e-03    1.0120000000e+05
    1.5297507634e-03    1.0120000000e+05
    1.5398319811e-03    1.0120000000e+05
    1.5499469591e-03    1.0120000000e+05
    1.5597743914e-03    1.0120000000e+05
    1.5699334908e-03    1.0120000000e+05
    1.5797980595e-03    1.0120000000e+05
    1.5896986006e-03    1.0120000000e+05
    1.5999352327e-03    1.0120000000e+05
    1.6098698834e-03    1.0120000000e+05
    1.6198134981e-03    1.0120000000e+05
    1.6297845868e-03    1.0120000000e+05
    1.6397772124e-03    1.0120000000e+05
    1.6498073237e-03    1.0120000000e+05
    1.6598519869e-03    1.0120000000e+05
    1.6698854743e-03    1.0120000000e+05
    1.6799226869e-03    1.0120000000e+05
    1.6899934271e-03    1.0120000000e+05
    1.6997684725e-03    1.0120000000e+05
    1.7098707613e-03    1.0120000000e+05
    1.7199873691e-03    1.0120000000e+05
    1.7297988525e-03    1.0120000000e+05
    1.7399482895e-03    1.0120000000e+05
    1.7497634981e-03    1.0120000000e+05
    1.7599274870e-03    1.0120000000e+05
    1.7697794829e-03    1.0120000000e+05
    1.7799534835e-03    1.0120000000e+05
    1.7898132792e-03    1.0120000000e+05
    1.7997045070e-03    1.0120000000e+05
    1.8099257722e-03    1.0120000000e+05
    1.8198193284e-03    1.0120000000e+05
    1.8297319766e-03    1.0120000000e+05
    1.8399860710e-03    1.0120000000e+05
    1.8498979043e-03    1.0120000000e+05
    1.8598182360e-03    1.0120000000e+05
    1.8697668565e-03    1.0120000000e+05
    1.8797309604e-03    1.0120000000e+05
    1.8896834226e-03    1.0120000000e+05
    1.8999637105e-03    1.0120000000e+05
    1.9099382916e-03    1.0120000000e+05
    1.9199320814e-03    1.0120000000e+05
    1.9299183041e-03    1.0120000000e+05
    1.9398893928e-03    1.0120000000e+05
    1.9498905167e-03    1.0120000000e+05
    1.9599099178e-03    1.0120000000e+05
    1.9699125551e-03    1.0120000000e+05
    1.9799205475e-03    1.0120000000e+05
    1.9899562467e-03    1.0120000000e+05
    1.9999868236e-03    1.0120000000e+05
    2.0099983085e-03    1.0120000000e+05
    2.0196971018e-03    1.0120000000e+05
    2.0297442097e-03    1.0120000000e+05
    2.0397878252e-03    1.0120000000e+05
    2.0498349331e-03    1.0120000000e+05
    2.0598869305e-03    1.0120000000e+05
    2.0699710585e-03    1.0120000000e+05
    2.0797110628e-03    1.0120000000e+05
    2.0897681825e-03    1.0120000000e+05
    2.0998606924e-03    1.0120000000e+05
    2.1099778824e-03    1.0120000000e+05
    2.1197295282e-03    1.0120000000e+05
    2.1298243664e-03    1.0120000000e+05
    2.1399608813e-03    1.0120000000e+05
    2.1497718990e-03    1.0120000000e+05
    2.1598977037e-03    1.0120000000e+05
    2.1696824115e-03    1.0120000000e+05
    2.1798696835e-03    1.0120000000e+05
    2.1897172555e-03    1.0120000000e+05
    2.1998798475e-03    1.0120000000e+05
    2.2097337060e-03    1.0120000000e+05
    2.2199647501e-03    1.0120000000e+05
    2.2298498079e-03    1.0120000000e+05
    2.2397309076e-03    1.0120000000e+05
    2.2499840707e-03    1.0120000000e+05
    2.2599434014e-03    1.0120000000e+05
    2.2698827088e-03    1.0120000000e+05
    2.2797980346e-03    1.0120000000e+05
    2.2897783201e-03    1.0120000000e+05
    2.2997935303e-03    1.0120000000e+05
    2.3097852245e-03    1.0120000000e+05
    2.3197836708e-03    1.0120000000e+05
    2.3298107553e-03    1.0120000000e+05
    2.3398695048e-03    1.0120000000e+05
    2.3499382660e-03    1.0120000000e+05
    2.3596615065e-03    1.0120000000e+05
    2.3697474971e-03    1.0120000000e+05
    2.3798667826e-03    1.0120000000e+05
    2.3899930529e-03    1.0120000000e+05
    2.3997845128e-03    1.0120000000e+05
    2.4099568836e-03    1.0120000000e+05
    2.4197888561e-03    1.0120000000e+05
    2.4299623910e-03    1.0120000000e+05
    2.4398248643e-03    1.0120000000e+05
    2.4497199338e-03    1.0120000000e+05
    2.4599719327e-03    1.0120000000e+05
    2.4698674679e-03    1.0120000000e+05
    2.4797825608e-03    1.0120000000e+05
    2.4897295516e-03    1.0120000000e+05
    2.4996923748e-03    1.0120000000e+05
    2.5096726604e-03    1.0120000000e+05
    2.5196524803e-03    1.0120000000e+05
    2.5299978442e-03    1.0120000000e+05
    2.5396647397e-03    1.0120000000e+05
    2.5497137103e-03    1.0120000000e+05
    2.5597717613e-03    1.0120000000e+05
    2.5698293466e-03    1.0120000000e+05
    2.5799062569e-03    1.0120000000e+05
    2.5896432344e-03    1.0120000000e+05
    2.5997681078e-03    1.0120000000e+05
    2.6099006645e-03    1.0120000000e+05
    2.6196828112e-03    1.0120000000e+05
    2.6298358571e-03    1.0120000000e+05
    2.6396401227e-03    1.0120000000e+05
    2.6498357765e-03    1.0120000000e+05
    2.6596894022e-03    1.0120000000e+05
    2.6699071750e-03    1.0120000000e+05
    2.6797633618e-03    1.0120000000e+05
    2.6899997611e-03    1.0120000000e+05
    2.6999071706e-03    1.0120000000e+05
    2.7098341379e-03    1.0120000000e+05
    2.7197576128e-03    1.0120000000e+05
    2.7296745684e-03    1.0120000000e+05
    2.7399871033e-03    1.0120000000e+05
    2.7499562129e-03    1.0120000000e+05
    2.7599479072e-03    1.0120000000e+05
    2.7699447237e-03    1.0120000000e+05
    2.7799445670e-03    1.0120000000e+05
    2.7899497654e-03    1.0120000000e+05
    2.7999808080e-03    1.0120000000e+05
    2.8096586466e-03    1.0120000000e+05
    2.8197134379e-03    1.0120000000e+05
    2.8297819663e-03    1.0120000000e+05
    2.8398591094e-03    1.0120000000e+05
    2.8499546461e-03    1.0120000000e+05
    2.8597023338e-03    1.0120000000e+05
    2.8698246460e-03    1.0120000000e+05
    2.8799411375e-03    1.0120000000e+05
    2.8896927834e-03    1.0120000000e+05
    2.8998332564e-03    1.0120000000e+05
    2.9096240178e-03    1.0120000000e+05
    2.9198178090e-03    1.0120000000e+05
    2.9296358116e-03    1.0120000000e+05
    2.9398256447e-03    1.0120000000e+05
    2.9496506322e-03    1.0120000000e+05
    2.9598644469e-03    1.0120000000e+05
    2.9697143473e-03    1.0120000000e+05
    2.9799614567e-03    1.0120000000e+05
    2.9898313805e-03    1.0120000000e+05
    2.9997092206e-03    1.0120000000e+05
    3.0099875294e-03    1.0120000000e+05
    3.0199023895e-03    1.0120000000e+05
    3.0298072379e-03    1.0120000000e+05
    3.0397193041e-03    1.0120000000e+05
    3.0496260151e-03    1.0120000000e+05
    3.0599317979e-03    1.0120000000e+05
    3.0698762275e-03    1.0120000000e+05
    3.0798360240e-03    1.0120000000e+05
    3.0897955876e-03    1.0120000000e+05
    3.0997630674e-03    1.0120000000e+05
    3.1097410247e-03    1.0120000000e+05
    3.1197227072e-03    1.0120000000e+05
    3.1297388487e-03    1.0120000000e+05
    3.1397547573e-03    1.0120000000e+05
    3.1497639138e-03    1.0120000000e+05
    3.1597721390e-03    1.0120000000e+05
    3.1697785016e-03    1.0120000000e+05
    3.1797725242e-03    1.0120000000e+05
    3.1897551380e-03    1.0120000000e+05
    3.1998062041e-03    1.0120000000e+05
    3.2098393422e-03    1.0120000000e+05
    3.2198443078e-03    1.0120000000e+05
    3.2297791913e-03    1.0120000000e+05
    3.2395594753e-03    1.0120000000e+05
    3.2498927321e-03    1.0120000000e+05
    3.2599056140e-03    1.0120000000e+05
    3.2696563285e-03    1.0120000000e+05
    3.2796040177e-03    1.0120000000e+05
    3.2897207420e-03    1.0120000000e+05
    3.2999881078e-03    1.0120000000e+05
    3.3098720014e-03    1.0120000000e+05
    3.3198897727e-03    1.0120000000e+05
    3.3299692441e-03    1.0120000000e+05
    3.3396894578e-03    1.0120000000e+05
    3.3494676463e-03    1.0120000000e+05
    3.3599005546e-03    1.0120000000e+05
    3.3698601183e-03    1.0120000000e+05
    3.3798753284e-03    1.0120000000e+05
    3.3899995033e-03    1.0120000000e+05
    3.3996505663e-03    1.0120000000e+05
    3.4095298033e-03    1.0120000000e+05
    3.4197869245e-03    1.0120000000e+05
    3.4298419487e-03    1.0120000000e+05
    3.4398194402e-03    1.0120000000e+05
    3.4497657325e-03    1.0120000000e+05
    3.4599695355e-03    1.0120000000e+05
    3.4698757809e-03    1.0120000000e+05
    3.4797743428e-03    1.0120000000e+05
    3.4899765160e-03    1.0120000000e+05
    3.4999072086e-03    1.0120000000e+05
    3.5098947119e-03    1.0120000000e+05
    3.5199269187e-03    1.0120000000e+05
    3.5297246650e-03    1.0120000000e+05
    3.5398520995e-03    1.0120000000e+05
    3.5497976933e-03    1.0120000000e+05
    3.5599037074e-03    1.0120000000e+05
    3.5697671119e-03    1.0120000000e+05
    3.5799616016e-03    1.0120000000e+05
    3.5899495706e-03    1.0120000000e+05
    3.5998283420e-03    1.0120000000e+05
    3.6098752171e-03    1.0120000000e+05
    3.6199789029e-03    1.0120000000e+05
    3.6297815386e-03    1.0120000000e+05
    3.6397043150e-03    1.0120000000e+05
    3.6498035770e-03    1.0120000000e+05
    3.6596963182e-03    1.0120000000e+05
    3.6696719471e-03    1.0120000000e+05
    3.6796717905e-03    1.0120000000e+05
    3.6897386890e-03    1.0120000000e+05
    3.6999029107e-03    1.0120000000e+05
    3.7098431494e-03    1.0120000000e+05
    3.7198544014e-03    1.0120000000e+05
    3.7298740353e-03    1.0120000000e+05
    3.7399122957e-03    1.0120000000e+05
    3.7496550940e-03    1.0120000000e+05
    3.7598400377e-03    1.0120000000e+05
    3.7697269581e-03    1.0120000000e+05
    3.7799857091e-03    1.0120000000e+05
    3.7899003364e-03    1.0120000000e+05
    3.7998443004e-03    1.0120000000e+05
    3.8098325022e-03    1.0120000000e+05
    3.8198546972e-03    1.0120000000e+05
    3.8298941217e-03    1.0120000000e+05
    3.8399409968e-03    1.0120000000e+05
    3.8496411871e-03    1.0120000000e+05
    3.8597192615e-03    1.0120000000e+05
    3.8698127028e-03    1.0120000000e+05
    3.8799159229e-03    1.0120000000e+05
    3.8896633778e-03    1.0120000000e+05
    3.8997742813e-03    1.0120000000e+05
    3.9098877460e-03    1.0120000000e+05
    3.9196424186e-03    1.0120000000e+05
    3.9297607727e-03    1.0120000000e+05
    3.9398814552e-03    1.0120000000e+05
    3.9496421814e-03    1.0120000000e+05
    3.9597661234e-03    1.0120000000e+05
    3.9698914625e-03    1.0120000000e+05
    3.9796568453e-03    1.0120000000e+05
    3.9897877723e-03    1.0120000000e+05
    3.9999252185e-03    1.0120000000e+05
    4.0097120218e-03    1.0120000000e+05
    4.0198755451e-03    1.0120000000e+05
    4.0296791121e-03    1.0120000000e+05
    4.0398440324e-03    1.0120000000e+05
    4.0496457368e-03    1.0120000000e+05
    4.0598087944e-03    1.0120000000e+05
    4.0699769743e-03    1.0120000000e+05
    4.0797879919e-03    1.0120000000e+05
    4.0899636224e-03    1.0120000000e+05
    4.0997751057e-03    1.0120000000e+05
    4.1099516675e-03    1.0120000000e+05
    4.1197673418e-03    1.0120000000e+05
    4.1299476288e-03    1.0120000000e+05
    4.1397651657e-03    1.0120000000e+05
    4.1499482468e-03    1.0120000000e+05
    4.1597699746e-03    1.0120000000e+05
    4.1699567810e-03    1.0120000000e+05
    4.1797803715e-03    1.0120000000e+05
    4.1899690405e-03    1.0120000000e+05
    4.1997958906e-03    1.0120000000e+05
    4.2099901475e-03    1.0120000000e+05
    4.2198216543e-03    1.0120000000e+05
    4.2296536267e-03    1.0120000000e+05
    4.2398511432e-03    1.0120000000e+05
    4.2496868409e-03    1.0120000000e+05
    4.2598890141e-03    1.0120000000e+05
    4.2697270401e-03    1.0120000000e+05
    4.2799306102e-03    1.0120000000e+05
    4.2897718959e-03    1.0120000000e+05
    4.2999801226e-03    1.0120000000e+05
    4.3098255992e-03    1.0120000000e+05
    4.3196724728e-03    1.0120000000e+05
    4.3298848905e-03    1.0120000000e+05
    4.3397345580e-03    1.0120000000e+05
    4.3499502353e-03    1.0120000000e+05
    4.3598031625e-03    1.0120000000e+05
    4.3696570210e-03    1.0120000000e+05
    4.3798764236e-03    1.0120000000e+05
    4.3897326104e-03    1.0120000000e+05
    4.3999557383e-03    1.0120000000e+05
    4.4098156504e-03    1.0120000000e+05
    4.4196769595e-03    1.0120000000e+05
    4.4299042784e-03    1.0120000000e+05
    4.4397669844e-03    1.0120000000e+05
    4.4499966316e-03    1.0120000000e+05
    4.4598630629e-03    1.0120000000e+05
    4.4697308913e-03    1.0120000000e+05
    4.4799647294e-03    1.0120000000e+05
    4.4898339547e-03    1.0120000000e+05
    4.4997041114e-03    1.0120000000e+05
    4.5099421404e-03    1.0120000000e+05
    4.5198155567e-03    1.0120000000e+05
    4.5296899043e-03    1.0120000000e+05
    4.5399302617e-03    1.0120000000e+05
    4.5498064719e-03    1.0120000000e+05
    4.5596840791e-03    1.0120000000e+05
    4.5699286275e-03    1.0120000000e+05
    4.5798080973e-03    1.0120000000e+05
    4.5896880329e-03    1.0120000000e+05
    4.5999344438e-03    1.0120000000e+05
    4.6098157763e-03    1.0120000000e+05
    4.6196975745e-03    1.0120000000e+05
    4.6299467795e-03    1.0120000000e+05
    4.6398309059e-03    1.0120000000e+05
    4.6497159638e-03    1.0120000000e+05
    4.6599670313e-03    1.0120000000e+05
    4.6698525548e-03    1.0120000000e+05
    4.6797380783e-03    1.0120000000e+05
    4.6899905428e-03    1.0120000000e+05
    4.6998779289e-03    1.0120000000e+05
    4.7097653151e-03    1.0120000000e+05
    4.7196531668e-03    1.0120000000e+05
    4.7299065627e-03    1.0120000000e+05
    4.7397944145e-03    1.0120000000e+05
    4.7496822663e-03    1.0120000000e+05
    4.7599370591e-03    1.0120000000e+05
    4.7698253766e-03    1.0120000000e+05
    4.7797132283e-03    1.0120000000e+05
    4.7899675556e-03    1.0120000000e+05
    4.7998558730e-03    1.0120000000e+05
    4.8097441904e-03    1.0120000000e+05
    4.8199985176e-03    1.0120000000e+05
    4.8298863694e-03    1.0120000000e+05
    4.8397742212e-03    1.0120000000e+05
    4.8496620730e-03    1.0120000000e+05
    4.8599159345e-03    1.0120000000e+05
    4.8698033206e-03    1.0120000000e+05
    4.8796907067e-03    1.0120000000e+05
    4.8899441026e-03    1.0120000000e+05
    4.8998310231e-03    1.0120000000e+05
    4.9097179435e-03    1.0120000000e+05
    4.9199708737e-03    1.0120000000e+05
    4.9298573285e-03    1.0120000000e+05
    4.9397437833e-03    1.0120000000e+05
    4.9499957822e-03    1.0120000000e+05
    4.9598817714e-03    1.0120000000e+05
    4.9697672948e-03    1.0120000000e+05
    4.9796528183e-03    1.0120000000e+05
    4.9899043515e-03    1.0120000000e+05
    4.9997894093e-03    1.0120000000e+05
    5.0096740015e-03    1.0120000000e+05
    5.0199246034e-03    1.0120000000e+05
    5.0298087299e-03    1.0120000000e+05
    5.0396923907e-03    1.0120000000e+05
    5.0499420613e-03    1.0120000000e+05
    5.0598257221e-03    1.0120000000e+05
    5.0697084516e-03    1.0120000000e+05
    5.0799571909e-03    1.0120000000e+05
    5.0898394547e-03    1.0120000000e+05
    5.0997217186e-03    1.0120000000e+05
    5.1099699922e-03    1.0120000000e+05
    5.1198517904e-03    1.0120000000e+05
    5.1297335885e-03    1.0120000000e+05
    5.1399809308e-03    1.0120000000e+05
    5.1498613320e-03    1.0120000000e+05
    5.1597426645e-03    1.0120000000e+05
    5.1699909382e-03    1.0120000000e+05
    5.1798745990e-03    1.0120000000e+05
    5.1897596568e-03    1.0120000000e+05
    5.1996442489e-03    1.0120000000e+05
    5.2098943852e-03    1.0120000000e+05
    5.2197822370e-03    1.0120000000e+05
    5.2296742797e-03    1.0120000000e+05
    5.2399365231e-03    1.0120000000e+05
    5.2498383448e-03    1.0120000000e+05
    5.2597448230e-03    1.0120000000e+05
    5.2696536295e-03    1.0120000000e+05
    5.2799344994e-03    1.0120000000e+05
    5.2898568101e-03    1.0120000000e+05
    5.2997898310e-03    1.0120000000e+05
    5.3097363561e-03    1.0120000000e+05
    5.3196963854e-03    1.0120000000e+05
    5.3296582773e-03    1.0120000000e+05
    5.3399899043e-03    1.0120000000e+05
    5.3499573842e-03    1.0120000000e+05
    5.3599420935e-03    1.0120000000e+05
    5.3699500859e-03    1.0120000000e+05
    5.3799729794e-03    1.0120000000e+05
    5.3896293975e-03    1.0120000000e+05
    5.3996546194e-03    1.0120000000e+05
    5.4096831009e-03    1.0120000000e+05
    5.4197255522e-03    1.0120000000e+05
    5.4297870956e-03    1.0120000000e+05
    5.4398658685e-03    1.0120000000e+05
    5.4499544203e-03    1.0120000000e+05
    5.4596671835e-03    1.0120000000e+05
    5.4697557352e-03    1.0120000000e+05
    5.4798536003e-03    1.0120000000e+05
    5.4899654351e-03    1.0120000000e+05
    5.4997210391e-03    1.0120000000e+05
    5.5098687299e-03    1.0120000000e+05
    5.5196410976e-03    1.0120000000e+05
    5.5297859944e-03    1.0120000000e+05
    5.5399369448e-03    1.0120000000e+05
    5.5497223511e-03    1.0120000000e+05
    5.5598965846e-03    1.0120000000e+05
    5.5697117932e-03    1.0120000000e+05
    5.5799139664e-03    1.0120000000e+05
    5.5897352286e-03    1.0120000000e+05
    5.5999346077e-03    1.0120000000e+05
    5.6097656488e-03    1.0120000000e+05
    5.6199883111e-03    1.0120000000e+05
    5.6298454292e-03    1.0120000000e+05
    5.6397104636e-03    1.0120000000e+05
    5.6499554776e-03    1.0120000000e+05
    5.6598172523e-03    1.0120000000e+05
    5.6696827523e-03    1.0120000000e+05
    5.6799398735e-03    1.0120000000e+05
    5.6898309849e-03    1.0120000000e+05
    5.6997234933e-03    1.0120000000e+05
    5.7099824771e-03    1.0120000000e+05
    5.7198470458e-03    1.0120000000e+05
    5.7296995074e-03    1.0120000000e+05
    5.7399198413e-03    1.0120000000e+05
    5.7497518137e-03    1.0120000000e+05
    5.7599539869e-03    1.0120000000e+05
    5.7697743177e-03    1.0120000000e+05
    5.7799569331e-03    1.0120000000e+05
    5.7897805236e-03    1.0120000000e+05
    5.7998173870e-03    1.0120000000e+05
    5.8098621666e-03    1.0120000000e+05
    5.8199423365e-03    1.0120000000e+05
    5.8296294883e-03    1.0120000000e+05
    5.8397240937e-03    1.0120000000e+05
    5.8498270810e-03    1.0120000000e+05
    5.8599361219e-03    1.0120000000e+05
    5.8696451597e-03    1.0120000000e+05
    5.8797621168e-03    1.0120000000e+05
    5.8898823336e-03    1.0120000000e+05
    5.8996011503e-03    1.0120000000e+05
    5.9097283520e-03    1.0120000000e+05
    5.9198574163e-03    1.0120000000e+05
    5.9299874119e-03    1.0120000000e+05
    5.9397136793e-03    1.0120000000e+05
    5.9498469345e-03    1.0120000000e+05
    5.9599811211e-03    1.0120000000e+05
    5.9697097167e-03    1.0120000000e+05
    5.9798439033e-03    1.0120000000e+05
    5.9899780899e-03    1.0120000000e+05
    5.9997066855e-03    1.0120000000e+05
    6.0098408721e-03    1.0120000000e+05
    6.0199745931e-03    1.0120000000e+05
    6.0297027230e-03    1.0120000000e+05
    6.0398359783e-03    1.0120000000e+05
    6.0499692336e-03    1.0120000000e+05
    6.0596968979e-03    1.0120000000e+05
    6.0698292218e-03    1.0120000000e+05
    6.0799620114e-03    1.0120000000e+05
    6.0896887444e-03    1.0120000000e+05
    6.0998206027e-03    1.0120000000e+05
    6.1099524610e-03    1.0120000000e+05
    6.1196782626e-03    1.0120000000e+05
    6.1298096552e-03    1.0120000000e+05
    6.1399410479e-03    1.0120000000e+05
    6.1496663839e-03    1.0120000000e+05
    6.1597973108e-03    1.0120000000e+05
    6.1699282378e-03    1.0120000000e+05
    6.1796535738e-03    1.0120000000e+05
    6.1897845007e-03    1.0120000000e+05
    6.1999149621e-03    1.0120000000e+05
    6.2096402980e-03    1.0120000000e+05
    6.2197707593e-03    1.0120000000e+05
    6.2299016863e-03    1.0120000000e+05
    6.2396270223e-03    1.0120000000e+05
    6.2497574836e-03    1.0120000000e+05
    6.2598879449e-03    1.0120000000e+05
    6.2696146779e-03    1.0120000000e+05
    6.2797483988e-03    1.0120000000e+05
    6.2898839824e-03    1.0120000000e+05
    6.2996153720e-03    1.0120000000e+05
    6.3097518869e-03    1.0120000000e+05
    6.3198879361e-03    1.0120000000e+05
    6.3296188600e-03    1.0120000000e+05
    6.3397563063e-03    1.0120000000e+05
    6.3498942181e-03    1.0120000000e+05
    6.3596270047e-03    1.0120000000e+05
    6.3697663136e-03    1.0120000000e+05
    6.3799056225e-03    1.0120000000e+05
    6.3896402717e-03    1.0120000000e+05
    6.3997805119e-03    1.0120000000e+05
    6.4099216834e-03    1.0120000000e+05
    6.4196577296e-03    1.0120000000e+05
    6.4297998324e-03    1.0120000000e+05
    6.4399424009e-03    1.0120000000e+05
    6.4496798441e-03    1.0120000000e+05
    6.4598233439e-03    1.0120000000e+05
    6.4699677750e-03    1.0120000000e+05
    6.4797061495e-03    1.0120000000e+05
    6.4898510464e-03    1.0120000000e+05
    6.4999964088e-03    1.0120000000e+05
    6.5097366460e-03    1.0120000000e+05
    6.5198829398e-03    1.0120000000e+05
    6.5296241082e-03    1.0120000000e+05
    6.5397713333e-03    1.0120000000e+05
    6.5499190241e-03    1.0120000000e+05
    6.5596611239e-03    1.0120000000e+05
    6.5698097460e-03    1.0120000000e+05
    6.5799588338e-03    1.0120000000e+05
    6.5897023305e-03    1.0120000000e+05
    6.5998528153e-03    1.0120000000e+05
    6.6095977090e-03    1.0120000000e+05
    6.6197486594e-03    1.0120000000e+05
    6.6299005412e-03    1.0120000000e+05
    6.6396468319e-03    1.0120000000e+05
    6.6497991793e-03    1.0120000000e+05
    6.6599524580e-03    1.0120000000e+05
    6.6697001457e-03    1.0120000000e+05
    6.6798548214e-03    1.0120000000e+05
    6.6896034405e-03    1.0120000000e+05
    6.6997590475e-03    1.0120000000e+05
    6.7099151202e-03    1.0120000000e+05
    6.7196656018e-03    1.0120000000e+05
    6.7298226058e-03    1.0120000000e+05
    6.7399805412e-03    1.0120000000e+05
    6.7497324198e-03    1.0120000000e+05
    6.7598912865e-03    1.0120000000e+05
    6.7696440965e-03    1.0120000000e+05
    6.7798043601e-03    1.0120000000e+05
    6.7899650894e-03    1.0120000000e+05
    6.7997197621e-03    1.0120000000e+05
    6.8098814227e-03    1.0120000000e+05
    6.8196374923e-03    1.0120000000e+05
    6.8298005499e-03    1.0120000000e+05
    6.8399640732e-03    1.0120000000e+05
    6.8497215398e-03    1.0120000000e+05
    6.8598859943e-03    1.0120000000e+05
    6.8696443923e-03    1.0120000000e+05
    6.8798102438e-03    1.0120000000e+05
    6.8899770267e-03    1.0120000000e+05
    6.8997372873e-03    1.0120000000e+05
    6.9099045359e-03    1.0120000000e+05
    6.9196657278e-03    1.0120000000e+05
    6.9298339076e-03    1.0120000000e+05
    6.9395964965e-03    1.0120000000e+05
    6.9497660734e-03    1.0120000000e+05
    6.9599365816e-03    1.0120000000e+05
    6.9697001018e-03    1.0120000000e+05
    6.9798715413e-03    1.0120000000e+05
    6.9896359928e-03    1.0120000000e+05
    6.9998083636e-03    1.0120000000e+05
    7.0099807344e-03    1.0120000000e+05
    7.0197470486e-03    1.0120000000e+05
    7.0299203508e-03    1.0120000000e+05
    7.0396871306e-03    1.0120000000e+05
    7.0498618297e-03    1.0120000000e+05
    7.0596295409e-03    1.0120000000e+05
    7.0698047057e-03    1.0120000000e+05
    7.0799803361e-03    1.0120000000e+05
    7.0897494443e-03    1.0120000000e+05
    7.0999255404e-03    1.0120000000e+05
    7.1096951142e-03    1.0120000000e+05
    7.1198721416e-03    1.0120000000e+05
    7.1296421811e-03    1.0120000000e+05
    7.1398201399e-03    1.0120000000e+05
    7.1499976330e-03    1.0120000000e+05
    7.1597690694e-03    1.0120000000e+05
    7.1699474938e-03    1.0120000000e+05
    7.1797189303e-03    1.0120000000e+05
    7.1898978204e-03    1.0120000000e+05
    7.1996697225e-03    1.0120000000e+05
    7.2098490782e-03    1.0120000000e+05
    7.2196214460e-03    1.0120000000e+05
    7.2298012674e-03    1.0120000000e+05
    7.2399810888e-03    1.0120000000e+05
    7.2497539222e-03    1.0120000000e+05
    7.2599342093e-03    1.0120000000e+05
    7.2697070427e-03    1.0120000000e+05
    7.2798877954e-03    1.0120000000e+05
    7.2896610945e-03    1.0120000000e+05
    7.2998413816e-03    1.0120000000e+05
    7.3096151464e-03    1.0120000000e+05
    7.3197954334e-03    1.0120000000e+05
    7.3299761862e-03    1.0120000000e+05
    7.3397499509e-03    1.0120000000e+05
    7.3499307036e-03    1.0120000000e+05
    7.3597040027e-03    1.0120000000e+05
    7.3698847555e-03    1.0120000000e+05
    7.3796580546e-03    1.0120000000e+05
    7.3898388073e-03    1.0120000000e+05
    7.3996121064e-03    1.0120000000e+05
    7.4097928591e-03    1.0120000000e+05
    7.4199736118e-03    1.0120000000e+05
    7.4297469109e-03    1.0120000000e+05
    7.4399271980e-03    1.0120000000e+05
    7.4497004971e-03    1.0120000000e+05
    7.4598807842e-03    1.0120000000e+05
    7.4696540833e-03    1.0120000000e+05
    7.4798343703e-03    1.0120000000e+05
    7.4896076694e-03    1.0120000000e+05
    7.4997879565e-03    1.0120000000e+05
    7.5099677779e-03    1.0120000000e+05
    7.5197406113e-03    1.0120000000e+05
    7.5299208984e-03    1.0120000000e+05
    7.5396932662e-03    1.0120000000e+05
    7.5498730876e-03    1.0120000000e+05
    7.5596459210e-03    1.0120000000e+05
    7.5698252767e-03    1.0120000000e+05
    7.5795981102e-03    1.0120000000e+05
    7.5897774659e-03    1.0120000000e+05
    7.5999568217e-03    1.0120000000e+05
    7.6097287238e-03    1.0120000000e+05
    7.6199076138e-03    1.0120000000e+05
    7.6296795160e-03    1.0120000000e+05
    7.6398584060e-03    1.0120000000e+05
    7.6496303082e-03    1.0120000000e+05
    7.6598087326e-03    1.0120000000e+05
    7.6699871570e-03    1.0120000000e+05
    7.6797585934e-03    1.0120000000e+05
    7.6899365522e-03    1.0120000000e+05
    7.6997075230e-03    1.0120000000e+05
    7.7098854817e-03    1.0120000000e+05
    7.7196564525e-03    1.0120000000e+05
    7.7298339456e-03    1.0120000000e+05
    7.7396044508e-03    1.0120000000e+05
    7.7497819439e-03    1.0120000000e+05
    7.7599589713e-03    1.0120000000e+05
    7.7697290108e-03    1.0120000000e+05
    7.7799060382e-03    1.0120000000e+05
    7.7896760777e-03    1.0120000000e+05
    7.7998526394e-03    1.0120000000e+05
    7.8096222132e-03    1.0120000000e+05
    7.8197987750e-03    1.0120000000e+05
    7.8299753368e-03    1.0120000000e+05
    7.8397439793e-03    1.0120000000e+05
    7.8499205410e-03    1.0120000000e+05
    7.8596891835e-03    1.0120000000e+05
    7.8698648140e-03    1.0120000000e+05
    7.8796334565e-03    1.0120000000e+05
    7.8898090869e-03    1.0120000000e+05
    7.8999856487e-03    1.0120000000e+05
    7.9097552225e-03    1.0120000000e+05
    7.9199327156e-03    1.0120000000e+05
    7.9297032207e-03    1.0120000000e+05
    7.9398807138e-03    1.0120000000e+05
    7.9496521503e-03    1.0120000000e+05
    7.9598305747e-03    1.0120000000e+05
    7.9696010798e-03    1.0120000000e+05
    7.9797795042e-03    1.0120000000e+05
    7.9899560660e-03    1.0120000000e+05
    7.9997237772e-03    1.0120000000e+05
    8.0098956823e-03    1.0120000000e+05
    8.0196559429e-03    1.0120000000e+05
    8.0298157409e-03    1.0120000000e+05
    8.0399718136e-03    1.0120000000e+05
    8.0497162417e-03    1.0120000000e+05
    8.0598434433e-03    1.0120000000e+05
    8.0696279183e-03    1.0120000000e+05
    8.0798584968e-03    1.0120000000e+05
    8.0896727741e-03    1.0120000000e+05
    8.0999108031e-03    1.0120000000e+05
    8.1097418442e-03    1.0120000000e+05
    8.1199845299e-03    1.0120000000e+05
    8.1298192963e-03    1.0120000000e+05
    8.1396568567e-03    1.0120000000e+05
    8.1499060616e-03    1.0120000000e+05
    8.1597473472e-03    1.0120000000e+05
    8.1699993461e-03    1.0120000000e+05
    8.1798434258e-03    1.0120000000e+05
    8.1896884367e-03    1.0120000000e+05
    8.1999450922e-03    1.0120000000e+05
    8.2097919658e-03    1.0120000000e+05
    8.2196388394e-03    1.0120000000e+05
    8.2298982888e-03    1.0120000000e+05
    8.2397470251e-03    1.0120000000e+05
    8.2495966926e-03    1.0120000000e+05
    8.2598570734e-03    1.0120000000e+05
    8.2697076723e-03    1.0120000000e+05
    8.2799689844e-03    1.0120000000e+05
    8.2898195833e-03    1.0120000000e+05
    8.2996711135e-03    1.0120000000e+05
    8.3099324256e-03    1.0120000000e+05
    8.3197839558e-03    1.0120000000e+05
    8.3296354860e-03    1.0120000000e+05
    8.3398967981e-03    1.0120000000e+05
    8.3497483283e-03    1.0120000000e+05
    8.3595998585e-03    1.0120000000e+05
    8.3698611706e-03    1.0120000000e+05
    8.3797127008e-03    1.0120000000e+05
    8.3899740130e-03    1.0120000000e+05
    8.3998246118e-03    1.0120000000e+05
    8.4096761420e-03    1.0120000000e+05
    8.4199374542e-03    1.0120000000e+05
    8.4297880530e-03    1.0120000000e+05
    8.4396386519e-03    1.0120000000e+05
    8.4498999640e-03    1.0120000000e+05
    8.4597505629e-03    1.0120000000e+05
    8.4696011618e-03    1.0120000000e+05
    8.4798624739e-03    1.0120000000e+05
    8.4897130728e-03    1.0120000000e+05
    8.4999743849e-03    1.0120000000e+05
    8.5098249838e-03    1.0120000000e+05
    8.5196755826e-03    1.0120000000e+05
    8.5299368948e-03    1.0120000000e+05
    8.5397874936e-03    1.0120000000e+05
    8.5496390238e-03    1.0120000000e+05
    8.5599003360e-03    1.0120000000e+05
    8.5697509348e-03    1.0120000000e+05
    8.5796024650e-03    1.0120000000e+05
    8.5898637772e-03    1.0120000000e+05
    8.5997153074e-03    1.0120000000e+05
    8.6099775508e-03    1.0120000000e+05
    8.6198290810e-03    1.0120000000e+05
    8.6296806112e-03    1.0120000000e+05
    8.6399419233e-03    1.0120000000e+05
    8.6497934535e-03    1.0120000000e+05
    8.6596459150e-03    1.0120000000e+05
    8.6699081585e-03    1.0120000000e+05
    8.6797606200e-03    1.0120000000e+05
    8.6896130815e-03    1.0120000000e+05
    8.6998753250e-03    1.0120000000e+05
    8.7097277865e-03    1.0120000000e+05
    8.7199909613e-03    1.0120000000e+05
    8.7298434228e-03    1.0120000000e+05
    8.7396958843e-03    1.0120000000e+05
    8.7499599904e-03    1.0120000000e+05
    8.7598124519e-03    1.0120000000e+05
    8.7696649134e-03    1.0120000000e+05
    8.7799280882e-03    1.0120000000e+05
    8.7897814810e-03    1.0120000000e+05
    8.7996348739e-03    1.0120000000e+05
    8.8098989800e-03    1.0120000000e+05
    8.8197523728e-03    1.0120000000e+05
    8.8296057656e-03    1.0120000000e+05
    8.8398698717e-03    1.0120000000e+05
    8.8497232646e-03    1.0120000000e+05
    8.8599873707e-03    1.0120000000e+05
    8.8698407635e-03    1.0120000000e+05
    8.8796950877e-03    1.0120000000e+05
    8.8899601251e-03    1.0120000000e+05
    8.8998144493e-03    1.0120000000e+05
    8.9096687734e-03    1.0120000000e+05
    8.9199328795e-03    1.0120000000e+05
    8.9297872037e-03    1.0120000000e+05
    8.9396424592e-03    1.0120000000e+05
    8.9499074966e-03    1.0120000000e+05
    8.9597627521e-03    1.0120000000e+05
    8.9696180075e-03    1.0120000000e+05
    8.9798839763e-03    1.0120000000e+05
    8.9897392318e-03    1.0120000000e+05
    8.9995944872e-03    1.0120000000e+05
    9.0098604560e-03    1.0120000000e+05
    9.0197166428e-03    1.0120000000e+05
    9.0299835429e-03    1.0120000000e+05
    9.0398397297e-03    1.0120000000e+05
    9.0496968478e-03    1.0120000000e+05
    9.0599637479e-03    1.0120000000e+05
    9.0698208660e-03    1.0120000000e+05
    9.0796779841e-03    1.0120000000e+05
    9.0899458155e-03    1.0120000000e+05
    9.0998029336e-03    1.0120000000e+05
    9.1096609831e-03    1.0120000000e+05
    9.1199288145e-03    1.0120000000e+05
    9.1297868639e-03    1.0120000000e+05
    9.1396449134e-03    1.0120000000e+05
    9.1499136761e-03    1.0120000000e+05
    9.1597717255e-03    1.0120000000e+05
    9.1696307063e-03    1.0120000000e+05
    9.1799004003e-03    1.0120000000e+05
    9.1897593811e-03    1.0120000000e+05
    9.1996183619e-03    1.0120000000e+05
    9.2098889872e-03    1.0120000000e+05
    9.2197488993e-03    1.0120000000e+05
    9.2296088114e-03    1.0120000000e+05
    9.2398794368e-03    1.0120000000e+05
    9.2497393489e-03    1.0120000000e+05
    9.2596001923e-03    1.0120000000e+05
    9.2698717490e-03    1.0120000000e+05
    9.2797325924e-03    1.0120000000e+05
    9.2895934358e-03    1.0120000000e+05
    9.2998659238e-03    1.0120000000e+05
    9.3097267672e-03    1.0120000000e+05
    9.3199992552e-03    1.0120000000e+05
    9.3298610300e-03    1.0120000000e+05
    9.3397228047e-03    1.0120000000e+05
    9.3499962240e-03    1.0120000000e+05
    9.3598589301e-03    1.0120000000e+05
    9.3697216362e-03    1.0120000000e+05
    9.3799950555e-03    1.0120000000e+05
    9.3898577616e-03    1.0120000000e+05
    9.3997213989e-03    1.0120000000e+05
    9.4099948183e-03    1.0120000000e+05
    9.4198584557e-03    1.0120000000e+05
    9.4297220930e-03    1.0120000000e+05
    9.4399964437e-03    1.0120000000e+05
    9.4498610124e-03    1.0120000000e+05
    9.4597246498e-03    1.0120000000e+05
    9.4699990004e-03    1.0120000000e+05
    9.4798635691e-03    1.0120000000e+05
    9.4897272065e-03    1.0120000000e+05
    9.4995908439e-03    1.0120000000e+05
    9.5098651946e-03    1.0120000000e+05
    9.5197288319e-03    1.0120000000e+05
    9.5295924693e-03    1.0120000000e+05
    9.5398668200e-03    1.0120000000e+05
    9.5497323200e-03    1.0120000000e+05
    9.5595978200e-03    1.0120000000e+05
    9.5698758960e-03    1.0120000000e+05
    9.5797423273e-03    1.0120000000e+05
    9.5896096900e-03    1.0120000000e+05
    9.5998877659e-03    1.0120000000e+05
    9.6097541973e-03    1.0120000000e+05
    9.6196206287e-03    1.0120000000e+05
    9.6298987046e-03    1.0120000000e+05
    9.6397660673e-03    1.0120000000e+05
    9.6496324986e-03    1.0120000000e+05
    9.6599105746e-03    1.0120000000e+05
    9.6697779372e-03    1.0120000000e+05
    9.6796452999e-03    1.0120000000e+05
    9.6899233758e-03    1.0120000000e+05
    9.6997907385e-03    1.0120000000e+05
    9.7096581012e-03    1.0120000000e+05
    9.7199371085e-03    1.0120000000e+05
    9.7298044711e-03    1.0120000000e+05
    9.7396718338e-03    1.0120000000e+05
    9.7499499097e-03    1.0120000000e+05
    9.7598172724e-03    1.0120000000e+05
    9.7696855664e-03    1.0120000000e+05
    9.7799636424e-03    1.0120000000e+05
    9.7898310050e-03    1.0120000000e+05
    9.7996992990e-03    1.0120000000e+05
    9.8099773750e-03    1.0120000000e+05
    9.8198456690e-03    1.0120000000e+05
    9.8297130316e-03    1.0120000000e+05
    9.8399911076e-03    1.0120000000e+05
    9.8498584703e-03    1.0120000000e+05
    9.8597267643e-03    1.0120000000e+05
    9.8695941269e-03    1.0120000000e+05
    9.8798722029e-03    1.0120000000e+05
    9.8897395656e-03    1.0120000000e+05
    9.8996069282e-03    1.0120000000e+05
    9.9098859355e-03    1.0120000000e+05
    9.9197532982e-03    1.0120000000e+05
    9.9296206608e-03    1.0120000000e+05
    9.9398987368e-03    1.0120000000e+05
    9.9497660995e-03    1.0120000000e+05
    9.9596334621e-03    1.0120000000e+05
    9.9699115381e-03    1.0120000000e+05
    9.9797789007e-03    1.0120000000e+05
    9.9896462634e-03    1.0120000000e+05
    9.9999243394e-03    1.0120000000e+05
    1.0009791702e-02    1.0120000000e+05
    1.0019659065e-02    1.0120000000e+05
    1.0029937141e-02    1.0120000000e+05
    1.0039803572e-02    1.0120000000e+05
    1.0049670935e-02    1.0120000000e+05
    1.0059949011e-02    1.0120000000e+05
    1.0069816373e-02    1.0120000000e+05
    1.0079682805e-02    1.0120000000e+05
    1.0089960881e-02    1.0120000000e+05
    1.0099828243e-02    1.0120000000e+05
    1.0109694675e-02    1.0120000000e+05
    1.0119972751e-02    1.0120000000e+05
    1.0129839182e-02    1.0120000000e+05
    1.0139706545e-02    1.0120000000e+05
    1.0149984621e-02    1.0120000000e+05
    1.0159851052e-02    1.0120000000e+05
    1.0169718415e-02    1.0120000000e+05
    1.0179996490e-02    1.0120000000e+05
    1.0189863853e-02    1.0120000000e+05
    1.0199731216e-02    1.0120000000e+05
    1.0209598579e-02    1.0120000000e+05
    1.0219877586e-02    1.0120000000e+05
    1.0229744017e-02    1.0120000000e+05
    1.0239610448e-02    1.0120000000e+05
    1.0249886662e-02    1.0120000000e+05
    1.0259750299e-02    1.0120000000e+05
    1.0269613937e-02    1.0120000000e+05
    1.0279887356e-02    1.0120000000e+05
    1.0289750993e-02    1.0120000000e+05
    1.0299619287e-02    1.0120000000e+05
    1.0309899226e-02    1.0120000000e+05
    1.0319768451e-02    1.0120000000e+05
    1.0329637676e-02    1.0120000000e+05
    1.0339919478e-02    1.0120000000e+05
    1.0349789634e-02    1.0120000000e+05
    1.0359660722e-02    1.0120000000e+05
    1.0369942524e-02    1.0120000000e+05
    1.0379814543e-02    1.0120000000e+05
    1.0389686562e-02    1.0120000000e+05
    1.0399969295e-02    1.0120000000e+05
    1.0409842245e-02    1.0120000000e+05
    1.0419715196e-02    1.0120000000e+05
    1.0429998860e-02    1.0120000000e+05
    1.0439871810e-02    1.0120000000e+05
    1.0449745692e-02    1.0120000000e+05
    1.0459619574e-02    1.0120000000e+05
    1.0469904169e-02    1.0120000000e+05
    1.0479778051e-02    1.0120000000e+05
    1.0489652865e-02    1.0120000000e+05
    1.0499938391e-02    1.0120000000e+05
    1.0509812273e-02    1.0120000000e+05
    1.0519687086e-02    1.0120000000e+05
    1.0529973544e-02    1.0120000000e+05
    1.0539848357e-02    1.0120000000e+05
    1.0549722239e-02    1.0120000000e+05
    1.0559597053e-02    1.0120000000e+05
    1.0569883510e-02    1.0120000000e+05
    1.0579758324e-02    1.0120000000e+05
    1.0589633137e-02    1.0120000000e+05
    1.0599919595e-02    1.0120000000e+05
    1.0609794408e-02    1.0120000000e+05
    1.0619669221e-02    1.0120000000e+05
    1.0629955679e-02    1.0120000000e+05
    1.0639830492e-02    1.0120000000e+05
    1.0649705306e-02    1.0120000000e+05
    1.0659991764e-02    1.0120000000e+05
    1.0669866577e-02    1.0120000000e+05
    1.0679741390e-02    1.0120000000e+05
    1.0689616203e-02    1.0120000000e+05
    1.0699902661e-02    1.0120000000e+05
    1.0709777474e-02    1.0120000000e+05
    1.0719651356e-02    1.0120000000e+05
    1.0729937814e-02    1.0120000000e+05
    1.0739812627e-02    1.0120000000e+05
    1.0749687441e-02    1.0120000000e+05
    1.0759972967e-02    1.0120000000e+05
    1.0769847780e-02    1.0120000000e+05
    1.0779722594e-02    1.0120000000e+05
    1.0789597407e-02    1.0120000000e+05
    1.0799883865e-02    1.0120000000e+05
    1.0809757747e-02    1.0120000000e+05
    1.0819632560e-02    1.0120000000e+05
    1.0829919018e-02    1.0120000000e+05
    1.0839793831e-02    1.0120000000e+05
    1.0849668644e-02    1.0120000000e+05
    1.0859954171e-02    1.0120000000e+05
    1.0869828984e-02    1.0120000000e+05
    1.0879703797e-02    1.0120000000e+05
    1.0889989324e-02    1.0120000000e+05
    1.0899864137e-02    1.0120000000e+05
    1.0909738950e-02    1.0120000000e+05
    1.0919613764e-02    1.0120000000e+05
    1.0929900222e-02    1.0120000000e+05
    1.0939774103e-02    1.0120000000e+05
    1.0949648917e-02    1.0120000000e+05
    1.0959935375e-02    1.0120000000e+05
    1.0969810188e-02    1.0120000000e+05
    1.0979684070e-02    1.0120000000e+05
    1.0989970528e-02    1.0120000000e+05
    1.0999845341e-02    1.0120000000e+05
    1.1009720154e-02    1.0120000000e+05
    1.1019594967e-02    1.0120000000e+05
    1.1029880494e-02    1.0120000000e+05
    1.1039755307e-02    1.0120000000e+05
    1.1049630120e-02    1.0120000000e+05
    1.1059915647e-02    1.0120000000e+05
    1.1069790460e-02    1.0120000000e+05
    1.1079665273e-02    1.0120000000e+05
    1.1089951731e-02    1.0120000000e+05
    1.1099825613e-02    1.0120000000e+05
    1.1109700426e-02    1.0120000000e+05
    1.1119986884e-02    1.0120000000e+05
    1.1129861698e-02    1.0120000000e+05
    1.1139736511e-02    1.0120000000e+05
    1.1149610393e-02    1.0120000000e+05
    1.1159896851e-02    1.0120000000e+05
    1.1169771664e-02    1.0120000000e+05
    1.1179646477e-02    1.0120000000e+05
    1.1189932004e-02    1.0120000000e+05
    1.1199806817e-02    1.0120000000e+05
    1.1209681630e-02    1.0120000000e+05
    1.1219968088e-02    1.0120000000e+05
    1.1229842901e-02    1.0120000000e+05
    1.1239717714e-02    1.0120000000e+05
    1.1249592528e-02    1.0120000000e+05
    1.1259878986e-02    1.0120000000e+05
    1.1269753799e-02    1.0120000000e+05
    1.1279628612e-02    1.0120000000e+05
    1.1289915070e-02    1.0120000000e+05
    1.1299789883e-02    1.0120000000e+05
    1.1309664696e-02    1.0120000000e+05
    1.1319951154e-02    1.0120000000e+05
    1.1329826899e-02    1.0120000000e+05
    1.1339701712e-02    1.0120000000e+05
    1.1349988170e-02    1.0120000000e+05
    1.1359862983e-02    1.0120000000e+05
    1.1369738728e-02    1.0120000000e+05
    1.1379613541e-02    1.0120000000e+05
    1.1389899999e-02    1.0120000000e+05
    1.1399775743e-02    1.0120000000e+05
    1.1409650557e-02    1.0120000000e+05
    1.1419937946e-02    1.0120000000e+05
    1.1429813690e-02    1.0120000000e+05
    1.1439688504e-02    1.0120000000e+05
    1.1449975893e-02    1.0120000000e+05
    1.1459851637e-02    1.0120000000e+05
    1.1469727382e-02    1.0120000000e+05
    1.1479603127e-02    1.0120000000e+05
    1.1489889584e-02    1.0120000000e+05
    1.1499765329e-02    1.0120000000e+05
    1.1509641074e-02    1.0120000000e+05
    1.1519928463e-02    1.0120000000e+05
    1.1529805139e-02    1.0120000000e+05
    1.1539680883e-02    1.0120000000e+05
    1.1549968272e-02    1.0120000000e+05
    1.1559844017e-02    1.0120000000e+05
    1.1569720693e-02    1.0120000000e+05
    1.1579596438e-02    1.0120000000e+05
    1.1589884758e-02    1.0120000000e+05
    1.1599760503e-02    1.0120000000e+05
    1.1609637178e-02    1.0120000000e+05
    1.1619925499e-02    1.0120000000e+05
    1.1629802175e-02    1.0120000000e+05
    1.1639677919e-02    1.0120000000e+05
    1.1649966240e-02    1.0120000000e+05
    1.1659842916e-02    1.0120000000e+05
    1.1669719592e-02    1.0120000000e+05
    1.1679596268e-02    1.0120000000e+05
    1.1689884588e-02    1.0120000000e+05
    1.1699761264e-02    1.0120000000e+05
    1.1709637940e-02    1.0120000000e+05
    1.1719926260e-02    1.0120000000e+05
    1.1729802936e-02    1.0120000000e+05
    1.1739679612e-02    1.0120000000e+05
    1.1749967933e-02    1.0120000000e+05
    1.1759845540e-02    1.0120000000e+05
    1.1769722216e-02    1.0120000000e+05
    1.1779599823e-02    1.0120000000e+05
    1.1789889075e-02    1.0120000000e+05
    1.1799766682e-02    1.0120000000e+05
    1.1809643358e-02    1.0120000000e+05
    1.1819932610e-02    1.0120000000e+05
    1.1829810217e-02    1.0120000000e+05
    1.1839687824e-02    1.0120000000e+05
    1.1849977076e-02    1.0120000000e+05
    1.1859854683e-02    1.0120000000e+05
    1.1869732291e-02    1.0120000000e+05
    1.1879609898e-02    1.0120000000e+05
    1.1889899150e-02    1.0120000000e+05
    1.1899776757e-02    1.0120000000e+05
    1.1909654364e-02    1.0120000000e+05
    1.1919943616e-02    1.0120000000e+05
    1.1929822154e-02    1.0120000000e+05
    1.1939699762e-02    1.0120000000e+05
    1.1949989013e-02    1.0120000000e+05
    1.1959866621e-02    1.0120000000e+05
    1.1969745159e-02    1.0120000000e+05
    1.1979622766e-02    1.0120000000e+05
    1.1989912950e-02    1.0120000000e+05
    1.1999790557e-02    1.0120000000e+05
    1.2009669095e-02    1.0120000000e+05
    1.2019958347e-02    1.0120000000e+05
    1.2029836886e-02    1.0120000000e+05
    1.2039714493e-02    1.0120000000e+05
    1.2049593031e-02    1.0120000000e+05
    1.2059882283e-02    1.0120000000e+05
    1.2069760822e-02    1.0120000000e+05
    1.2079639360e-02    1.0120000000e+05
    1.2089928612e-02    1.0120000000e+05
    1.2099807151e-02    1.0120000000e+05
    1.2109684758e-02    1.0120000000e+05
    1.2119974941e-02    1.0120000000e+05
    1.2129853480e-02    1.0120000000e+05
    1.2139731087e-02    1.0120000000e+05
    1.2149609625e-02    1.0120000000e+05
    1.2159899808e-02    1.0120000000e+05
    1.2169777416e-02    1.0120000000e+05
    1.2179655954e-02    1.0120000000e+05
    1.2189945206e-02    1.0120000000e+05
    1.2199823745e-02    1.0120000000e+05
    1.2209702283e-02    1.0120000000e+05
    1.2219991535e-02    1.0120000000e+05
    1.2229870073e-02    1.0120000000e+05
    1.2239747681e-02    1.0120000000e+05
    1.2249626219e-02    1.0120000000e+05
    1.2259916402e-02    1.0120000000e+05
    1.2269794010e-02    1.0120000000e+05
    1.2279672548e-02    1.0120000000e+05
    1.2289961800e-02    1.0120000000e+05
    1.2299840339e-02    1.0120000000e+05
    1.2309717946e-02    1.0120000000e+05
    1.2319596484e-02    1.0120000000e+05
    1.2329885736e-02    1.0120000000e+05
    1.2339764275e-02    1.0120000000e+05
    1.2349642813e-02    1.0120000000e+05
    1.2359932065e-02    1.0120000000e+05
    1.2369810604e-02    1.0120000000e+05
    1.2379688211e-02    1.0120000000e+05
    1.2389978394e-02    1.0120000000e+05
    1.2399856932e-02    1.0120000000e+05
    1.2409734540e-02    1.0120000000e+05
    1.2419613078e-02    1.0120000000e+05
    1.2429903261e-02    1.0120000000e+05
    1.2439781800e-02    1.0120000000e+05
    1.2449660338e-02    1.0120000000e+05
    1.2459949590e-02    1.0120000000e+05
    1.2469828129e-02    1.0120000000e+05
    1.2479705736e-02    1.0120000000e+05
    1.2489994988e-02    1.0120000000e+05
    1.2499873526e-02    1.0120000000e+05
    1.2509751134e-02    1.0120000000e+05
    1.2519629672e-02    1.0120000000e+05
    1.2529919855e-02    1.0120000000e+05
    1.2539797463e-02    1.0120000000e+05
    1.2549676001e-02    1.0120000000e+05
    1.2559965253e-02    1.0120000000e+05
    1.2569843791e-02    1.0120000000e+05
    1.2579722330e-02    1.0120000000e+05
    1.2589599937e-02    1.0120000000e+05
    1.2599890120e-02    1.0120000000e+05
    1.2609768659e-02    1.0120000000e+05
    1.2619647197e-02    1.0120000000e+05
    1.2629936449e-02    1.0120000000e+05
    1.2639814988e-02    1.0120000000e+05
    1.2649693526e-02    1.0120000000e+05
    1.2659983709e-02    1.0120000000e+05
    1.2669862248e-02    1.0120000000e+05
    1.2679740787e-02    1.0120000000e+05
    1.2689620256e-02    1.0120000000e+05
    1.2699910440e-02    1.0120000000e+05
    1.2709788978e-02    1.0120000000e+05
    1.2719667517e-02    1.0120000000e+05
    1.2729958631e-02    1.0120000000e+05
    1.2739837170e-02    1.0120000000e+05
    1.2749715708e-02    1.0120000000e+05
    1.2759595178e-02    1.0120000000e+05
    1.2769885361e-02    1.0120000000e+05
    1.2779763900e-02    1.0120000000e+05
    1.2789643370e-02    1.0120000000e+05
    1.2799933553e-02    1.0120000000e+05
    1.2809813023e-02    1.0120000000e+05
    1.2819691561e-02    1.0120000000e+05
    1.2829982676e-02    1.0120000000e+05
    1.2839861214e-02    1.0120000000e+05
    1.2849740684e-02    1.0120000000e+05
    1.2859619223e-02    1.0120000000e+05
    1.2869910337e-02    1.0120000000e+05
    1.2879788876e-02    1.0120000000e+05
    1.2889668345e-02    1.0120000000e+05
    1.2899958529e-02    1.0120000000e+05
    1.2909837998e-02    1.0120000000e+05
    1.2919716537e-02    1.0120000000e+05
    1.2929596007e-02    1.0120000000e+05
    1.2939886190e-02    1.0120000000e+05
    1.2949765660e-02    1.0120000000e+05
    1.2959644198e-02    1.0120000000e+05
    1.2969935313e-02    1.0120000000e+05
    1.2979813851e-02    1.0120000000e+05
    1.2989693321e-02    1.0120000000e+05
    1.2999983504e-02    1.0120000000e+05
    1.3009862043e-02    1.0120000000e+05
    1.3019741513e-02    1.0120000000e+05
    1.3029620051e-02    1.0120000000e+05
    1.3039911166e-02    1.0120000000e+05
    1.3049789704e-02    1.0120000000e+05
    1.3059668243e-02    1.0120000000e+05
    1.3069959357e-02    1.0120000000e+05
    1.3079837896e-02    1.0120000000e+05
    1.3089717366e-02    1.0120000000e+05
    1.3099595904e-02    1.0120000000e+05
    1.3109886087e-02    1.0120000000e+05
    1.3119765557e-02    1.0120000000e+05
    1.3129644096e-02    1.0120000000e+05
    1.3139935210e-02    1.0120000000e+05
    1.3149813749e-02    1.0120000000e+05
    1.3159692287e-02    1.0120000000e+05
    1.3169983402e-02    1.0120000000e+05
    1.3179861940e-02    1.0120000000e+05
    1.3189741410e-02    1.0120000000e+05
    1.3199619949e-02    1.0120000000e+05
    1.3209910132e-02    1.0120000000e+05
    1.3219789602e-02    1.0120000000e+05
    1.3229668140e-02    1.0120000000e+05
    1.3239958324e-02    1.0120000000e+05
    1.3249837793e-02    1.0120000000e+05
    1.3259716332e-02    1.0120000000e+05
    1.3269594871e-02    1.0120000000e+05
    1.3279885985e-02    1.0120000000e+05
    1.3289764524e-02    1.0120000000e+05
    1.3299643993e-02    1.0120000000e+05
    1.3309934177e-02    1.0120000000e+05
    1.3319812715e-02    1.0120000000e+05
    1.3329692185e-02    1.0120000000e+05
    1.3339982368e-02    1.0120000000e+05
    1.3349860907e-02    1.0120000000e+05
    1.3359739445e-02    1.0120000000e+05
    1.3369618915e-02    1.0120000000e+05
    1.3379909098e-02    1.0120000000e+05
    1.3389787637e-02    1.0120000000e+05
    1.3399667107e-02    1.0120000000e+05
    1.3409957290e-02    1.0120000000e+05
    1.3419835828e-02    1.0120000000e+05
    1.3429715298e-02    1.0120000000e+05
    1.3439593837e-02    1.0120000000e+05
    1.3449884020e-02    1.0120000000e+05
    1.3459763490e-02    1.0120000000e+05
    1.3469642028e-02    1.0120000000e+05
    1.3479932211e-02    1.0120000000e+05
    1.3489811681e-02    1.0120000000e+05
    1.3499690220e-02    1.0120000000e+05
    1.3509980403e-02    1.0120000000e+05
    1.3519859873e-02    1.0120000000e+05
    1.3529738411e-02    1.0120000000e+05
    1.3539616950e-02    1.0120000000e+05
    1.3549908064e-02    1.0120000000e+05
    1.3559786603e-02    1.0120000000e+05
    1.3569666073e-02    1.0120000000e+05
    1.3579956256e-02    1.0120000000e+05
    1.3589834794e-02    1.0120000000e+05
    1.3599714264e-02    1.0120000000e+05
    1.3609592803e-02    1.0120000000e+05
    1.3619883917e-02    1.0120000000e+05
    1.3629762456e-02    1.0120000000e+05
    1.3639641926e-02    1.0120000000e+05
    1.3649932109e-02    1.0120000000e+05
    1.3659810647e-02    1.0120000000e+05
    1.3669690117e-02    1.0120000000e+05
    1.3679980300e-02    1.0120000000e+05
    1.3689859770e-02    1.0120000000e+05
    1.3699738309e-02    1.0120000000e+05
    1.3709617779e-02    1.0120000000e+05
    1.3719907962e-02    1.0120000000e+05
    1.3729787432e-02    1.0120000000e+05
    1.3739665970e-02    1.0120000000e+05
    1.3749957085e-02    1.0120000000e+05
    1.3759835623e-02    1.0120000000e+05
    1.3769715093e-02    1.0120000000e+05
    1.3779593632e-02    1.0120000000e+05
    1.3789884746e-02    1.0120000000e+05
    1.3799764216e-02    1.0120000000e+05
    1.3809642754e-02    1.0120000000e+05
    1.3819933869e-02    1.0120000000e+05
    1.3829812407e-02    1.0120000000e+05
    1.3839691877e-02    1.0120000000e+05
    1.3849982992e-02    1.0120000000e+05
    1.3859861530e-02    1.0120000000e+05
    1.3869741000e-02    1.0120000000e+05
    1.3879619539e-02    1.0120000000e+05
    1.3889910653e-02    1.0120000000e+05
    1.3899790123e-02    1.0120000000e+05
    1.3909668662e-02    1.0120000000e+05
    1.3919959776e-02    1.0120000000e+05
    1.3929839246e-02    1.0120000000e+05
    1.3939717785e-02    1.0120000000e+05
    1.3949597254e-02    1.0120000000e+05
    1.3959888369e-02    1.0120000000e+05
    1.3969766907e-02    1.0120000000e+05
    1.3979646377e-02    1.0120000000e+05
    1.3989937492e-02    1.0120000000e+05
    1.3999816962e-02    1.0120000000e+05
    1.4009695500e-02    1.0120000000e+05
    1.4019986615e-02    1.0120000000e+05
    1.4029866084e-02    1.0120000000e+05
    1.4039745554e-02    1.0120000000e+05
    1.4049625024e-02    1.0120000000e+05
    1.4059915207e-02    1.0120000000e+05
    1.4069794677e-02    1.0120000000e+05
    1.4079674147e-02    1.0120000000e+05
    1.4089965262e-02    1.0120000000e+05
    1.4099844731e-02    1.0120000000e+05
    1.4109724201e-02    1.0120000000e+05
    1.4119603671e-02    1.0120000000e+05
    1.4129894786e-02    1.0120000000e+05
    1.4139774255e-02    1.0120000000e+05
    1.4149653725e-02    1.0120000000e+05
    1.4159944840e-02    1.0120000000e+05
    1.4169824310e-02    1.0120000000e+05
    1.4179702848e-02    1.0120000000e+05
    1.4189993963e-02    1.0120000000e+05
    1.4199873433e-02    1.0120000000e+05
    1.4209752902e-02    1.0120000000e+05
    1.4219632372e-02    1.0120000000e+05
    1.4229924418e-02    1.0120000000e+05
    1.4239803888e-02    1.0120000000e+05
    1.4249683358e-02    1.0120000000e+05
    1.4259974472e-02    1.0120000000e+05
    1.4269853942e-02    1.0120000000e+05
    1.4279733412e-02    1.0120000000e+05
    1.4289612882e-02    1.0120000000e+05
    1.4299903996e-02    1.0120000000e+05
    1.4309783466e-02    1.0120000000e+05
    1.4319662936e-02    1.0120000000e+05
    1.4329954050e-02    1.0120000000e+05
    1.4339833520e-02    1.0120000000e+05
    1.4349712990e-02    1.0120000000e+05
    1.4359593391e-02    1.0120000000e+05
    1.4369884506e-02    1.0120000000e+05
    1.4379763976e-02    1.0120000000e+05
    1.4389643446e-02    1.0120000000e+05
    1.4399934560e-02    1.0120000000e+05
    1.4409814030e-02    1.0120000000e+05
    1.4419693500e-02    1.0120000000e+05
    1.4429984614e-02    1.0120000000e+05
    1.4439864084e-02    1.0120000000e+05
    1.4449744485e-02    1.0120000000e+05
    1.4459623955e-02    1.0120000000e+05
    1.4469915070e-02    1.0120000000e+05
    1.4479794540e-02    1.0120000000e+05
    1.4489674009e-02    1.0120000000e+05
    1.4499965124e-02    1.0120000000e+05
    1.4509844594e-02    1.0120000000e+05
    1.4519724064e-02    1.0120000000e+05
    1.4529603533e-02    1.0120000000e+05
    1.4539894648e-02    1.0120000000e+05
    1.4549775049e-02    1.0120000000e+05
    1.4559654519e-02    1.0120000000e+05
    1.4569945633e-02    1.0120000000e+05
    1.4579825103e-02    1.0120000000e+05
    1.4589704573e-02    1.0120000000e+05
    1.4599995688e-02    1.0120000000e+05
    1.4609875157e-02    1.0120000000e+05
    1.4619755559e-02    1.0120000000e+05
    1.4629635029e-02    1.0120000000e+05
    1.4639926143e-02    1.0120000000e+05
    1.4649805613e-02    1.0120000000e+05
    1.4659685083e-02    1.0120000000e+05
    1.4669977129e-02    1.0120000000e+05
    1.4679856598e-02    1.0120000000e+05
    1.4689736068e-02    1.0120000000e+05
    1.4699615538e-02    1.0120000000e+05
    1.4709906653e-02    1.0120000000e+05
    1.4719786122e-02    1.0120000000e+05
    1.4729665592e-02    1.0120000000e+05
    1.4739957638e-02    1.0120000000e+05
    1.4749837108e-02    1.0120000000e+05
    1.4759716578e-02    1.0120000000e+05
    1.4769596048e-02    1.0120000000e+05
    1.4779887162e-02    1.0120000000e+05
    1.4789766632e-02    1.0120000000e+05
    1.4799646102e-02    1.0120000000e+05
    1.4809937216e-02    1.0120000000e+05
    1.4819817618e-02    1.0120000000e+05
    1.4829697087e-02    1.0120000000e+05
    1.4839988202e-02    1.0120000000e+05
    1.4849867672e-02    1.0120000000e+05
    1.4859747142e-02    1.0120000000e+05
    1.4869626611e-02    1.0120000000e+05
    1.4879917726e-02    1.0120000000e+05
    1.4889798127e-02    1.0120000000e+05
    1.4899677597e-02    1.0120000000e+05
    1.4909968711e-02    1.0120000000e+05
    1.4919848181e-02    1.0120000000e+05
    1.4929727651e-02    1.0120000000e+05
    1.4939608052e-02    1.0120000000e+05
    1.4949899167e-02    1.0120000000e+05
    1.4959778637e-02    1.0120000000e+05
    1.4969658107e-02    1.0120000000e+05
    1.4979949221e-02    1.0120000000e+05
    1.4989829622e-02    1.0120000000e+05
    1.4999709092e-02    1.0120000000e+05
    1.5009588562e-02    1.0120000000e+05
    1.5019879676e-02    1.0120000000e+05
    1.5029760078e-02    1.0120000000e+05
    1.5039639547e-02    1.0120000000e+05
    1.5049930662e-02    1.0120000000e+05
    1.5059810132e-02    1.0120000000e+05
    1.5069690533e-02    1.0120000000e+05
    1.5079981647e-02    1.0120000000e+05
    1.5089861117e-02    1.0120000000e+05
    1.5099740587e-02    1.0120000000e+05
    1.5109620988e-02    1.0120000000e+05
    1.5119912103e-02    1.0120000000e+05
    1.5129791573e-02    1.0120000000e+05
    1.5139671043e-02    1.0120000000e+05
    1.5149963088e-02    1.0120000000e+05
    1.5159842558e-02    1.0120000000e+05
    1.5169722028e-02    1.0120000000e+05
    1.5179601498e-02    1.0120000000e+05
    1.5189893544e-02    1.0120000000e+05
    1.5199773014e-02    1.0120000000e+05
    1.5209652483e-02    1.0120000000e+05
    1.5219943598e-02    1.0120000000e+05
    1.5229823999e-02    1.0120000000e+05
    1.5239703469e-02    1.0120000000e+05
    1.5249994583e-02    1.0120000000e+05
    1.5259874053e-02    1.0120000000e+05
    1.5269754454e-02    1.0120000000e+05
    1.5279633924e-02    1.0120000000e+05
    1.5289925039e-02    1.0120000000e+05
    1.5299804509e-02    1.0120000000e+05
    1.5309683979e-02    1.0120000000e+05
    1.5319976024e-02    1.0120000000e+05
    1.5329855494e-02    1.0120000000e+05
    1.5339734964e-02    1.0120000000e+05
    1.5349614434e-02    1.0120000000e+05
    1.5359906480e-02    1.0120000000e+05
    1.5369785950e-02    1.0120000000e+05
    1.5379665419e-02    1.0120000000e+05
    1.5389956534e-02    1.0120000000e+05
    1.5399836004e-02    1.0120000000e+05
    1.5409716405e-02    1.0120000000e+05
    1.5419595875e-02    1.0120000000e+05
    1.5429886989e-02    1.0120000000e+05
    1.5439766459e-02    1.0120000000e+05
    1.5449646860e-02    1.0120000000e+05
    1.5459937975e-02    1.0120000000e+05
    1.5469817445e-02    1.0120000000e+05
    1.5479696915e-02    1.0120000000e+05
    1.5489988029e-02    1.0120000000e+05
    1.5499868430e-02    1.0120000000e+05
    1.5509747900e-02    1.0120000000e+05
    1.5519627370e-02    1.0120000000e+05
    1.5529918484e-02    1.0120000000e+05
    1.5539797954e-02    1.0120000000e+05
    1.5549678355e-02    1.0120000000e+05
    1.5559969470e-02    1.0120000000e+05
    1.5569848940e-02    1.0120000000e+05
    1.5579728410e-02    1.0120000000e+05
    1.5589607880e-02    1.0120000000e+05
    1.5599898994e-02    1.0120000000e+05
    1.5609779395e-02    1.0120000000e+05
    1.5619658865e-02    1.0120000000e+05
    1.5629949048e-02    1.0120000000e+05
    1.5639830381e-02    1.0120000000e+05
    1.5649709851e-02    1.0120000000e+05
    1.5659589320e-02    1.0120000000e+05
    1.5669880435e-02    1.0120000000e+05
    1.5679759905e-02    1.0120000000e+05
    1.5689639375e-02    1.0120000000e+05
    1.5699930489e-02    1.0120000000e+05
    1.5709809959e-02    1.0120000000e+05
    1.5719689429e-02    1.0120000000e+05
    1.5729980543e-02    1.0120000000e+05
    1.5739860013e-02    1.0120000000e+05
    1.5749741346e-02    1.0120000000e+05
    1.5759620816e-02    1.0120000000e+05
    1.5769911930e-02    1.0120000000e+05
    1.5779791400e-02    1.0120000000e+05
    1.5789670870e-02    1.0120000000e+05
    1.5799961984e-02    1.0120000000e+05
    1.5809841454e-02    1.0120000000e+05
    1.5819720924e-02    1.0120000000e+05
    1.5829600394e-02    1.0120000000e+05
    1.5839891508e-02    1.0120000000e+05
    1.5849772841e-02    1.0120000000e+05
    1.5859652311e-02    1.0120000000e+05
    1.5869943425e-02    1.0120000000e+05
    1.5879822895e-02    1.0120000000e+05
    1.5889702365e-02    1.0120000000e+05
    1.5899993479e-02    1.0120000000e+05
    1.5909872949e-02    1.0120000000e+05
    1.5919754282e-02    1.0120000000e+05
    1.5929633752e-02    1.0120000000e+05
    1.5939924866e-02    1.0120000000e+05
    1.5949804336e-02    1.0120000000e+05
    1.5959683806e-02    1.0120000000e+05
    1.5969976783e-02    1.0120000000e+05
    1.5979856253e-02    1.0120000000e+05
    1.5989735723e-02    1.0120000000e+05
    1.5999615192e-02    1.0120000000e+05
    1.6009906307e-02    1.0120000000e+05
    1.6019787639e-02    1.0120000000e+05
    1.6029667109e-02    1.0120000000e+05
    1.6039958224e-02    1.0120000000e+05
    1.6049837694e-02    1.0120000000e+05
    1.6059717163e-02    1.0120000000e+05
    1.6069598496e-02    1.0120000000e+05
    1.6079889610e-02    1.0120000000e+05
    1.6089769080e-02    1.0120000000e+05
    1.6099648550e-02    1.0120000000e+05
    1.6109941527e-02    1.0120000000e+05
    1.6119820997e-02    1.0120000000e+05
    1.6129700467e-02    1.0120000000e+05
    1.6139991581e-02    1.0120000000e+05
    1.6149871051e-02    1.0120000000e+05
    1.6159752384e-02    1.0120000000e+05
    1.6169631854e-02    1.0120000000e+05
    1.6179922968e-02    1.0120000000e+05
    1.6189802438e-02    1.0120000000e+05
    1.6199683771e-02    1.0120000000e+05
    1.6209974885e-02    1.0120000000e+05
    1.6219854355e-02    1.0120000000e+05
    1.6229733825e-02    1.0120000000e+05
    1.6239613295e-02    1.0120000000e+05
    1.6249906272e-02    1.0120000000e+05
    1.6259785742e-02    1.0120000000e+05
    1.6269665211e-02    1.0120000000e+05
    1.6279956326e-02    1.0120000000e+05
    1.6289837658e-02    1.0120000000e+05
    1.6299717128e-02    1.0120000000e+05
    1.6309596598e-02    1.0120000000e+05
    1.6319887713e-02    1.0120000000e+05
    1.6329767182e-02    1.0120000000e+05
    1.6339648515e-02    1.0120000000e+05
    1.6349939629e-02    1.0120000000e+05
    1.6359819099e-02    1.0120000000e+05
    1.6369698569e-02    1.0120000000e+05
    1.6379991546e-02    1.0120000000e+05
    1.6389871016e-02    1.0120000000e+05
    1.6399750486e-02    1.0120000000e+05
    1.6409629956e-02    1.0120000000e+05
    1.6419921070e-02    1.0120000000e+05
    1.6429802403e-02    1.0120000000e+05
    1.6439681873e-02    1.0120000000e+05
    1.6449972987e-02    1.0120000000e+05
    1.6459852457e-02    1.0120000000e+05
    1.6469733790e-02    1.0120000000e+05
    1.6479613259e-02    1.0120000000e+05
    1.6489904374e-02    1.0120000000e+05
    1.6499783844e-02    1.0120000000e+05
    1.6509665176e-02    1.0120000000e+05
    1.6519956291e-02    1.0120000000e+05
    1.6529835761e-02    1.0120000000e+05
    1.6539715230e-02    1.0120000000e+05
    1.6549596563e-02    1.0120000000e+05
    1.6559887677e-02    1.0120000000e+05
    1.6569767147e-02    1.0120000000e+05
    1.6579646617e-02    1.0120000000e+05
    1.6589939594e-02    1.0120000000e+05
    1.6599819064e-02    1.0120000000e+05
    1.6609698534e-02    1.0120000000e+05
    1.6619989648e-02    1.0120000000e+05
    1.6629870981e-02    1.0120000000e+05
    1.6639750451e-02    1.0120000000e+05
    1.6649629921e-02    1.0120000000e+05
    1.6659921035e-02    1.0120000000e+05
    1.6669802368e-02    1.0120000000e+05
    1.6679681838e-02    1.0120000000e+05
    1.6689972952e-02    1.0120000000e+05
    1.6699852422e-02    1.0120000000e+05
    1.6709731892e-02    1.0120000000e+05
    1.6719613224e-02    1.0120000000e+05
    1.6729904339e-02    1.0120000000e+05
    1.6739783809e-02    1.0120000000e+05
    1.6749663278e-02    1.0120000000e+05
    1.6759956256e-02    1.0120000000e+05
    1.6769835725e-02    1.0120000000e+05
    1.6779715195e-02    1.0120000000e+05
    1.6789594665e-02    1.0120000000e+05
    1.6799887642e-02    1.0120000000e+05
    1.6809767112e-02    1.0120000000e+05
    1.6819646582e-02    1.0120000000e+05
    1.6829937696e-02    1.0120000000e+05
    1.6839819029e-02    1.0120000000e+05
    1.6849698499e-02    1.0120000000e+05
    1.6859989613e-02    1.0120000000e+05
    1.6869869083e-02    1.0120000000e+05
    1.6879750416e-02    1.0120000000e+05
    1.6889629886e-02    1.0120000000e+05
    1.6899921000e-02    1.0120000000e+05
    1.6909800470e-02    1.0120000000e+05
    1.6919681802e-02    1.0120000000e+05
    1.6929972917e-02    1.0120000000e+05
    1.6939852387e-02    1.0120000000e+05
    1.6949731857e-02    1.0120000000e+05
    1.6959613189e-02    1.0120000000e+05
    1.6969904304e-02    1.0120000000e+05
    1.6979783773e-02    1.0120000000e+05
    1.6989663243e-02    1.0120000000e+05
    1.6999956220e-02    1.0120000000e+05
    1.7009835690e-02    1.0120000000e+05
    1.7019715160e-02    1.0120000000e+05
    1.7029594630e-02    1.0120000000e+05
    1.7039887607e-02    1.0120000000e+05
    1.7049767077e-02    1.0120000000e+05
    1.7059646547e-02    1.0120000000e+05
    1.7069937661e-02    1.0120000000e+05
    1.7079818994e-02    1.0120000000e+05
    1.7089698464e-02    1.0120000000e+05
    1.7099989578e-02    1.0120000000e+05
    1.7109869048e-02    1.0120000000e+05
    1.7119750381e-02    1.0120000000e+05
    1.7129629850e-02    1.0120000000e+05
    1.7139920965e-02    1.0120000000e+05
    1.7149800435e-02    1.0120000000e+05
    1.7159681767e-02    1.0120000000e+05
    1.7169972882e-02    1.0120000000e+05
    1.7179852352e-02    1.0120000000e+05
    1.7189731821e-02    1.0120000000e+05
    1.7199613154e-02    1.0120000000e+05
    1.7209904268e-02    1.0120000000e+05
    1.7219783738e-02    1.0120000000e+05
    1.7229663208e-02    1.0120000000e+05
    1.7239956185e-02    1.0120000000e+05
    1.7249835655e-02    1.0120000000e+05
    1.7259715125e-02    1.0120000000e+05
    1.7269594595e-02    1.0120000000e+05
    1.7279887572e-02    1.0120000000e+05
    1.7289767042e-02    1.0120000000e+05
    1.7299646512e-02    1.0120000000e+05
    1.7309937626e-02    1.0120000000e+05
    1.7319818959e-02    1.0120000000e+05
    1.7329698429e-02    1.0120000000e+05
    1.7339989543e-02    1.0120000000e+05
    1.7349869013e-02    1.0120000000e+05
    1.7359750345e-02    1.0120000000e+05
    1.7369629815e-02    1.0120000000e+05
    1.7379920930e-02    1.0120000000e+05
    1.7389800400e-02    1.0120000000e+05
    1.7399681732e-02    1.0120000000e+05
    1.7409972847e-02    1.0120000000e+05
    1.7419852316e-02    1.0120000000e+05
    1.7429731786e-02    1.0120000000e+05
    1.7439613119e-02    1.0120000000e+05
    1.7449904233e-02    1.0120000000e+05
    1.7459783703e-02    1.0120000000e+05
    1.7469663173e-02    1.0120000000e+05
    1.7479956150e-02    1.0120000000e+05
    1.7489835620e-02    1.0120000000e+05
    1.7499715090e-02    1.0120000000e+05
    1.7509594560e-02    1.0120000000e+05
    1.7519887537e-02    1.0120000000e+05
    1.7529767007e-02    1.0120000000e+05
    1.7539646477e-02    1.0120000000e+05
    1.7549937591e-02    1.0120000000e+05
    1.7559818923e-02    1.0120000000e+05
    1.7569698393e-02    1.0120000000e+05
    1.7579989508e-02    1.0120000000e+05
    1.7589868978e-02    1.0120000000e+05
    1.7599750310e-02    1.0120000000e+05
    1.7609629780e-02    1.0120000000e+05
    1.7619920895e-02    1.0120000000e+05
    1.7629800364e-02    1.0120000000e+05
    1.7639681697e-02    1.0120000000e+05
    1.7649972811e-02    1.0120000000e+05
    1.7659852281e-02    1.0120000000e+05
    1.7669731751e-02    1.0120000000e+05
    1.7679613084e-02    1.0120000000e+05
    1.7689904198e-02    1.0120000000e+05
    1.7699783668e-02    1.0120000000e+05
    1.7709663138e-02    1.0120000000e+05
    1.7719956115e-02    1.0120000000e+05
    1.7729835585e-02    1.0120000000e+05
    1.7739715055e-02    1.0120000000e+05
    1.7749594525e-02    1.0120000000e+05
    1.7759887502e-02    1.0120000000e+05
    1.7769766971e-02    1.0120000000e+05
    1.7779646441e-02    1.0120000000e+05
    1.7789937556e-02    1.0120000000e+05
    1.7799817026e-02    1.0120000000e+05
    1.7809698358e-02    1.0120000000e+05
    1.7819989473e-02    1.0120000000e+05
    1.7829868942e-02    1.0120000000e+05
    1.7839748412e-02    1.0120000000e+05
    1.7849629745e-02    1.0120000000e+05
    1.7859920859e-02    1.0120000000e+05
    1.7869800329e-02    1.0120000000e+05
    1.7879679799e-02    1.0120000000e+05
    1.7889972776e-02    1.0120000000e+05
    1.7899852246e-02    1.0120000000e+05
    1.7909731716e-02    1.0120000000e+05
    1.7919611186e-02    1.0120000000e+05
    1.7929904163e-02    1.0120000000e+05
    1.7939783633e-02    1.0120000000e+05
    1.7949663103e-02    1.0120000000e+05
    1.7959954217e-02    1.0120000000e+05
    1.7969835550e-02    1.0120000000e+05
    1.7979715019e-02    1.0120000000e+05
    1.7989594489e-02    1.0120000000e+05
    1.7999885604e-02    1.0120000000e+05
    1.8009766936e-02    1.0120000000e+05
    1.8019646406e-02    1.0120000000e+05
    1.8029937521e-02    1.0120000000e+05
    1.8039816990e-02    1.0120000000e+05
    1.8049698323e-02    1.0120000000e+05
    1.8059989437e-02    1.0120000000e+05
    1.8069868907e-02    1.0120000000e+05
    1.8079748377e-02    1.0120000000e+05
    1.8089629710e-02    1.0120000000e+05
    1.8099920824e-02    1.0120000000e+05
    1.8109800294e-02    1.0120000000e+05
    1.8119681627e-02    1.0120000000e+05
    1.8129972741e-02    1.0120000000e+05
    1.8139852211e-02    1.0120000000e+05
    1.8149731681e-02    1.0120000000e+05
    1.8159613013e-02    1.0120000000e+05
    1.8169904128e-02    1.0120000000e+05
    1.8179783598e-02    1.0120000000e+05
    1.8189664930e-02    1.0120000000e+05
    1.8199956045e-02    1.0120000000e+05
    1.8209835514e-02    1.0120000000e+05
    1.8219716847e-02    1.0120000000e+05
    1.8229596317e-02    1.0120000000e+05
    1.8239887431e-02    1.0120000000e+05
    1.8249768764e-02    1.0120000000e+05
    1.8259648234e-02    1.0120000000e+05
    1.8269939348e-02    1.0120000000e+05
    1.8279820681e-02    1.0120000000e+05
    1.8289700150e-02    1.0120000000e+05
    1.8299993128e-02    1.0120000000e+05
    1.8309872597e-02    1.0120000000e+05
    1.8319752067e-02    1.0120000000e+05
    1.8329633400e-02    1.0120000000e+05
    1.8339924514e-02    1.0120000000e+05
    1.8349803984e-02    1.0120000000e+05
    1.8359685317e-02    1.0120000000e+05
    1.8369976431e-02    1.0120000000e+05
    1.8379857764e-02    1.0120000000e+05
    1.8389737234e-02    1.0120000000e+05
    1.8399616703e-02    1.0120000000e+05
    1.8409909680e-02    1.0120000000e+05
    1.8419789150e-02    1.0120000000e+05
    1.8429670483e-02    1.0120000000e+05
    1.8439961597e-02    1.0120000000e+05
    1.8449841067e-02    1.0120000000e+05
    1.8459722400e-02    1.0120000000e+05
    1.8469601870e-02    1.0120000000e+05
    1.8479894847e-02    1.0120000000e+05
    1.8489774317e-02    1.0120000000e+05
    1.8499653786e-02    1.0120000000e+05
    1.8509946764e-02    1.0120000000e+05
    1.8519826233e-02    1.0120000000e+05
    1.8529707566e-02    1.0120000000e+05
    1.8539998680e-02    1.0120000000e+05
    1.8549880013e-02    1.0120000000e+05
    1.8559759483e-02    1.0120000000e+05
    1.8569638953e-02    1.0120000000e+05
    1.8579931930e-02    1.0120000000e+05
    1.8589811400e-02    1.0120000000e+05
    1.8599692732e-02    1.0120000000e+05
    1.8609983847e-02    1.0120000000e+05
    1.8619865179e-02    1.0120000000e+05
    1.8629744649e-02    1.0120000000e+05
    1.8639625981e-02    1.0120000000e+05
    1.8649917096e-02    1.0120000000e+05
    1.8659798428e-02    1.0120000000e+05
    1.8669677898e-02    1.0120000000e+05
    1.8679969013e-02    1.0120000000e+05
    1.8689850345e-02    1.0120000000e+05
    1.8699729815e-02    1.0120000000e+05
    1.8709611148e-02    1.0120000000e+05
    1.8719902262e-02    1.0120000000e+05
    1.8729783595e-02    1.0120000000e+05
    1.8739663064e-02    1.0120000000e+05
    1.8749956042e-02    1.0120000000e+05
    1.8759835511e-02    1.0120000000e+05
    1.8769716844e-02    1.0120000000e+05
    1.8779596314e-02    1.0120000000e+05
    1.8789889291e-02    1.0120000000e+05
    1.8799768761e-02    1.0120000000e+05
    1.8809650093e-02    1.0120000000e+05
    1.8819941208e-02    1.0120000000e+05
    1.8829822540e-02    1.0120000000e+05
    1.8839702010e-02    1.0120000000e+05
    1.8849994987e-02    1.0120000000e+05
    1.8859874457e-02    1.0120000000e+05
    1.8869753927e-02    1.0120000000e+05
    1.8879635260e-02    1.0120000000e+05
    1.8889926374e-02    1.0120000000e+05
    1.8899807706e-02    1.0120000000e+05
    1.8909687176e-02    1.0120000000e+05
    1.8919980153e-02    1.0120000000e+05
    1.8929859623e-02    1.0120000000e+05
    1.8939740956e-02    1.0120000000e+05
    1.8949620426e-02    1.0120000000e+05
    1.8959913403e-02    1.0120000000e+05
    1.8969792873e-02    1.0120000000e+05
    1.8979674205e-02    1.0120000000e+05
    1.8989965320e-02    1.0120000000e+05
    1.8999846652e-02    1.0120000000e+05
    1.9009726122e-02    1.0120000000e+05
    1.9019607455e-02    1.0120000000e+05
    1.9029898569e-02    1.0120000000e+05
    1.9039779902e-02    1.0120000000e+05
    1.9049659371e-02    1.0120000000e+05
    1.9059952348e-02    1.0120000000e+05
    1.9069831818e-02    1.0120000000e+05
    1.9079713151e-02    1.0120000000e+05
    1.9089592621e-02    1.0120000000e+05
    1.9099885598e-02    1.0120000000e+05
    1.9109765068e-02    1.0120000000e+05
    1.9119646400e-02    1.0120000000e+05
    1.9129939377e-02    1.0120000000e+05
    1.9139818847e-02    1.0120000000e+05
    1.9149700180e-02    1.0120000000e+05
    1.9159991294e-02    1.0120000000e+05
    1.9169872627e-02    1.0120000000e+05
    1.9179752097e-02    1.0120000000e+05
    1.9189633429e-02    1.0120000000e+05
    1.9199924543e-02    1.0120000000e+05
    1.9209805876e-02    1.0120000000e+05
    1.9219685346e-02    1.0120000000e+05
    1.9229978323e-02    1.0120000000e+05
    1.9239857793e-02    1.0120000000e+05
    1.9249739125e-02    1.0120000000e+05
    1.9259618595e-02    1.0120000000e+05
    1.9269911572e-02    1.0120000000e+05
    1.9279791042e-02    1.0120000000e+05
    1.9289672375e-02    1.0120000000e+05
    1.9299963489e-02    1.0120000000e+05
    1.9309844822e-02    1.0120000000e+05
    1.9319724292e-02    1.0120000000e+05
    1.9329605624e-02    1.0120000000e+05
    1.9339896739e-02    1.0120000000e+05
    1.9349778071e-02    1.0120000000e+05
    1.9359657541e-02    1.0120000000e+05
    1.9369950518e-02    1.0120000000e+05
    1.9379829988e-02    1.0120000000e+05
    1.9389711320e-02    1.0120000000e+05
    1.9399590790e-02    1.0120000000e+05
    1.9409883767e-02    1.0120000000e+05
    1.9419765100e-02    1.0120000000e+05
    1.9429644570e-02    1.0120000000e+05
    1.9439937547e-02    1.0120000000e+05
[...]
    1.3513998687e-01    1.0120032031e+05
    1.3514988124e-01    1.0120032031e+05
    1.3515976071e-01    1.0120032031e+05
    1.3516964018e-01    1.0120032031e+05
    1.3517993689e-01    1.0120032031e+05
    1.3518981636e-01    1.0120032031e+05
    1.3519969583e-01    1.0120032031e+05
    1.3520999253e-01    1.0120032031e+05
    1.3521988690e-01    1.0120032031e+05
    1.3522976637e-01    1.0120032031e+05
    1.3523964584e-01    1.0120032031e+05
    1.3524994254e-01    1.0120032031e+05
    1.3525982201e-01    1.0120032031e+05
    1.3526970148e-01    1.0120032031e+05
    1.3527999818e-01    1.0120032031e+05
    1.3528987765e-01    1.0120032031e+05
    1.3529977202e-01    1.0120032031e+05
    1.3530965149e-01    1.0120032031e+05
    1.3531994820e-01    1.0120032031e+05
    1.3532982767e-01    1.0120032031e+05
    1.3533970714e-01    1.0120032031e+05
    1.3534958661e-01    1.0120032031e+05
    1.3535988331e-01    1.0120032031e+05
    1.3536976278e-01    1.0120032031e+05
    1.3537965715e-01    1.0120032031e+05
    1.3538993895e-01    1.0120032031e+05
    1.3539983332e-01    1.0120032031e+05
    1.3540971279e-01    1.0120032031e+05
    1.3541959226e-01    1.0120032031e+05
    1.3542988896e-01    1.0120032031e+05
    1.3543976843e-01    1.0120032031e+05
    1.3544964790e-01    1.0120032031e+05
    1.3545994461e-01    1.0120032031e+05
    1.3546983898e-01    1.0120032031e+05
    1.3547971845e-01    1.0120032031e+05
    1.3548959792e-01    1.0120032031e+05
    1.3549989462e-01    1.0120032031e+05
    1.3550977409e-01    1.0120032031e+05
    1.3551965356e-01    1.0120032031e+05
    1.3552995026e-01    1.0120032031e+05
    1.3553982973e-01    1.0120032031e+05
    1.3554972410e-01    1.0120032031e+05
    1.3555960357e-01    1.0120032031e+05
    1.3556990027e-01    1.0120032031e+05
    1.3557977974e-01    1.0120032031e+05
    1.3558965921e-01    1.0120032031e+05
    1.3559995592e-01    1.0120032031e+05
    1.3560983539e-01    1.0120032031e+05
    1.3561971486e-01    1.0120032031e+05
    1.3562960923e-01    1.0120032031e+05
    1.3563989103e-01    1.0120032031e+05
    1.3564978540e-01    1.0120032031e+05
    1.3565966487e-01    1.0120032031e+05
    1.3566996157e-01    1.0120032031e+05
    1.3567984104e-01    1.0120032031e+05
    1.3568972051e-01    1.0120032031e+05
    1.3569959998e-01    1.0120032031e+05
    1.3570989668e-01    1.0120032031e+05
    1.3571979105e-01    1.0120032031e+05
    1.3572967052e-01    1.0120032031e+05
    1.3573996723e-01    1.0120032031e+05
    1.3574984670e-01    1.0120032031e+05
    1.3575972617e-01    1.0120032031e+05
    1.3576960564e-01    1.0120032031e+05
    1.3577990234e-01    1.0120032031e+05
    1.3578978181e-01    1.0120032031e+05
    1.3579967618e-01    1.0120032031e+05
    1.3580995798e-01    1.0120032031e+05
    1.3581985235e-01    1.0120032031e+05
    1.3582973182e-01    1.0120032031e+05
    1.3583961129e-01    1.0120032031e+05
    1.3584990799e-01    1.0120032031e+05
    1.3585978746e-01    1.0120032031e+05
    1.3586966693e-01    1.0120032031e+05
    1.3587996364e-01    1.0120032031e+05
    1.3588984311e-01    1.0120032031e+05
    1.3589973748e-01    1.0120032031e+05
    1.3590961695e-01    1.0120032031e+05
    1.3591991365e-01    1.0120032031e+05
    1.3592979312e-01    1.0120032031e+05
    1.3593967259e-01    1.0120032031e+05
    1.3594996929e-01    1.0120032031e+05
    1.3595984876e-01    1.0120032031e+05
    1.3596974313e-01    1.0120032031e+05
    1.3597962260e-01    1.0120032031e+05
    1.3598991930e-01    1.0120032031e+05
    1.3599979877e-01    1.0120032031e+05
    1.3600967824e-01    1.0120032031e+05
    1.3601997495e-01    1.0120032031e+05
    1.3602985442e-01    1.0120032031e+05
    1.3603973389e-01    1.0120032031e+05
    1.3604962826e-01    1.0120032031e+05
    1.3605991006e-01    1.0120032031e+05
    1.3606980443e-01    1.0120032031e+05
    1.3607968390e-01    1.0120032031e+05
    1.3608998060e-01    1.0120032031e+05
    1.3609986007e-01    1.0120032031e+05
    1.3610973954e-01    1.0120032031e+05
    1.3611961901e-01    1.0120031250e+05
    1.3612991571e-01    1.0120031250e+05
    1.3613979518e-01    1.0120031250e+05
    1.3614968956e-01    1.0120031250e+05
    1.3615998626e-01    1.0120031250e+05
    1.3616986573e-01    1.0120031250e+05
    1.3617974520e-01    1.0120031250e+05
    1.3618962467e-01    1.0120031250e+05
    1.3619992137e-01    1.0120031250e+05
    1.3620980084e-01    1.0120031250e+05
    1.3621969521e-01    1.0120031250e+05
    1.3622997701e-01    1.0120031250e+05
    1.3623987138e-01    1.0120031250e+05
    1.3624975085e-01    1.0120031250e+05
    1.3625963032e-01    1.0120031250e+05
    1.3626992702e-01    1.0120031250e+05
    1.3627980649e-01    1.0120031250e+05
    1.3628968596e-01    1.0120031250e+05
    1.3629998267e-01    1.0120031250e+05
    1.3630986214e-01    1.0120031250e+05
    1.3631975651e-01    1.0120031250e+05
    1.3632963598e-01    1.0120031250e+05
    1.3633993268e-01    1.0120031250e+05
    1.3634981215e-01    1.0120031250e+05
    1.3635969162e-01    1.0120031250e+05
    1.3636998832e-01    1.0120031250e+05
    1.3637986779e-01    1.0120031250e+05
    1.3638974726e-01    1.0120031250e+05
    1.3639964163e-01    1.0120031250e+05
    1.3640993834e-01    1.0120031250e+05
    1.3641981781e-01    1.0120031250e+05
    1.3642969728e-01    1.0120031250e+05
    1.3643999398e-01    1.0120031250e+05
    1.3644987345e-01    1.0120031250e+05
    1.3645975292e-01    1.0120031250e+05
    1.3646964729e-01    1.0120031250e+05
    1.3647992909e-01    1.0120031250e+05
    1.3648982346e-01    1.0120031250e+05
    1.3649970293e-01    1.0120031250e+05
    1.3650999963e-01    1.0120031250e+05
    1.3651987910e-01    1.0120031250e+05
    1.3652975857e-01    1.0120031250e+05
    1.3653963804e-01    1.0120031250e+05
    1.3654993474e-01    1.0120031250e+05
    1.3655981421e-01    1.0120031250e+05
    1.3656970859e-01    1.0120031250e+05
    1.3658000529e-01    1.0120031250e+05
    1.3658988476e-01    1.0120031250e+05
    1.3659976423e-01    1.0120031250e+05
    1.3660964370e-01    1.0120031250e+05
    1.3661994040e-01    1.0120031250e+05
    1.3662981987e-01    1.0120031250e+05
    1.3663971424e-01    1.0120031250e+05
    1.3664959371e-01    1.0120031250e+05
    1.3665989041e-01    1.0120031250e+05
    1.3666976988e-01    1.0120031250e+05
    1.3667964935e-01    1.0120031250e+05
    1.3668994606e-01    1.0120031250e+05
    1.3669982553e-01    1.0120031250e+05
    1.3670970500e-01    1.0120031250e+05
    1.3671959937e-01    1.0120031250e+05
    1.3672988117e-01    1.0120031250e+05
    1.3673977554e-01    1.0120031250e+05
    1.3674965501e-01    1.0120031250e+05
    1.3675995171e-01    1.0120031250e+05
    1.3676983118e-01    1.0120031250e+05
    1.3677971065e-01    1.0120031250e+05
    1.3678959012e-01    1.0120031250e+05
    1.3679988682e-01    1.0120031250e+05
    1.3680976629e-01    1.0120031250e+05
    1.3681966066e-01    1.0120031250e+05
    1.3682995737e-01    1.0120031250e+05
    1.3683983684e-01    1.0120031250e+05
    1.3684971631e-01    1.0120031250e+05
    1.3685959578e-01    1.0120031250e+05
    1.3686989248e-01    1.0120031250e+05
    1.3687977195e-01    1.0120031250e+05
    1.3688966632e-01    1.0120031250e+05
    1.3689994812e-01    1.0120031250e+05
    1.3690984249e-01    1.0120031250e+05
    1.3691972196e-01    1.0120031250e+05
    1.3692960143e-01    1.0120031250e+05
    1.3693989813e-01    1.0120031250e+05
    1.3694977760e-01    1.0120031250e+05
    1.3695965707e-01    1.0120031250e+05
    1.3696995378e-01    1.0120031250e+05
    1.3697983325e-01    1.0120031250e+05
    1.3698972762e-01    1.0120031250e+05
    1.3699960709e-01    1.0120031250e+05
    1.3700990379e-01    1.0120031250e+05
    1.3701978326e-01    1.0120031250e+05
    1.3702966273e-01    1.0120031250e+05
    1.3703995943e-01    1.0120031250e+05
    1.3704983890e-01    1.0120031250e+05
    1.3705971837e-01    1.0120031250e+05
    1.3706961274e-01    1.0120031250e+05
    1.3707990944e-01    1.0120031250e+05
    1.3708978891e-01    1.0120031250e+05
    1.3709966838e-01    1.0120031250e+05
    1.3710996509e-01    1.0120031250e+05
    1.3711984456e-01    1.0120031250e+05
    1.3712972403e-01    1.0120031250e+05
    1.3713961840e-01    1.0120031250e+05
    1.3714990020e-01    1.0120031250e+05
    1.3715979457e-01    1.0120031250e+05
    1.3716967404e-01    1.0120031250e+05
    1.3717997074e-01    1.0120030469e+05
    1.3718985021e-01    1.0120030469e+05
    1.3719972968e-01    1.0120030469e+05
    1.3720960915e-01    1.0120030469e+05
    1.3721990585e-01    1.0120030469e+05
    1.3722978532e-01    1.0120030469e+05
    1.3723967969e-01    1.0120030469e+05
    1.3724997640e-01    1.0120030469e+05
    1.3725985587e-01    1.0120030469e+05
    1.3726973534e-01    1.0120030469e+05
    1.3727961481e-01    1.0120030469e+05
    1.3728991151e-01    1.0120030469e+05
    1.3729979098e-01    1.0120030469e+05
    1.3730967045e-01    1.0120030469e+05
    1.3731996715e-01    1.0120030469e+05
    1.3732986152e-01    1.0120030469e+05
    1.3733974099e-01    1.0120030469e+05
    1.3734962046e-01    1.0120030469e+05
    1.3735991716e-01    1.0120030469e+05
    1.3736979663e-01    1.0120030469e+05
    1.3737967610e-01    1.0120030469e+05
    1.3738997281e-01    1.0120030469e+05
    1.3739985228e-01    1.0120030469e+05
    1.3740974665e-01    1.0120030469e+05
    1.3741962612e-01    1.0120030469e+05
    1.3742992282e-01    1.0120030469e+05
    1.3743980229e-01    1.0120030469e+05
    1.3744968176e-01    1.0120030469e+05
    1.3745997846e-01    1.0120030469e+05
    1.3746985793e-01    1.0120030469e+05
    1.3747973740e-01    1.0120030469e+05
    1.3748963177e-01    1.0120030469e+05
    1.3749992847e-01    1.0120030469e+05
    1.3750980794e-01    1.0120030469e+05
    1.3751968741e-01    1.0120030469e+05
    1.3752998412e-01    1.0120030469e+05
    1.3753986359e-01    1.0120030469e+05
    1.3754974306e-01    1.0120030469e+05
    1.3755962253e-01    1.0120030469e+05
    1.3756991923e-01    1.0120030469e+05
    1.3757981360e-01    1.0120030469e+05
    1.3758969307e-01    1.0120030469e+05
    1.3759998977e-01    1.0120030469e+05
    1.3760986924e-01    1.0120030469e+05
    1.3761974871e-01    1.0120030469e+05
    1.3762962818e-01    1.0120030469e+05
    1.3763992488e-01    1.0120030469e+05
    1.3764980435e-01    1.0120030469e+05
    1.3765969872e-01    1.0120030469e+05
    1.3766998053e-01    1.0120030469e+05
    1.3767987490e-01    1.0120030469e+05
    1.3768975437e-01    1.0120030469e+05
    1.3769963384e-01    1.0120030469e+05
    1.3770993054e-01    1.0120030469e+05
    1.3771981001e-01    1.0120030469e+05
    1.3772968948e-01    1.0120030469e+05
    1.3773998618e-01    1.0120030469e+05
    1.3774988055e-01    1.0120030469e+05
    1.3775976002e-01    1.0120030469e+05
    1.3776963949e-01    1.0120030469e+05
    1.3777993619e-01    1.0120030469e+05
    1.3778981566e-01    1.0120030469e+05
    1.3779969513e-01    1.0120030469e+05
    1.3780999184e-01    1.0120030469e+05
    1.3781987131e-01    1.0120030469e+05
    1.3782976568e-01    1.0120030469e+05
    1.3783964515e-01    1.0120030469e+05
    1.3784994185e-01    1.0120030469e+05
    1.3785982132e-01    1.0120030469e+05
    1.3786970079e-01    1.0120030469e+05
    1.3787999749e-01    1.0120030469e+05
    1.3788987696e-01    1.0120030469e+05
    1.3789975643e-01    1.0120030469e+05
    1.3790965080e-01    1.0120030469e+05
    1.3791993260e-01    1.0120030469e+05
    1.3792982697e-01    1.0120030469e+05
    1.3793970644e-01    1.0120030469e+05
    1.3795000315e-01    1.0120030469e+05
    1.3795988262e-01    1.0120030469e+05
    1.3796976209e-01    1.0120030469e+05
    1.3797964156e-01    1.0120030469e+05
    1.3798993826e-01    1.0120030469e+05
    1.3799983263e-01    1.0120030469e+05
    1.3800971210e-01    1.0120030469e+05
    1.3801959157e-01    1.0120030469e+05
    1.3802988827e-01    1.0120030469e+05
    1.3803976774e-01    1.0120030469e+05
    1.3804964721e-01    1.0120030469e+05
    1.3805994391e-01    1.0120030469e+05
    1.3806982338e-01    1.0120030469e+05
    1.3807971776e-01    1.0120030469e+05
    1.3808959723e-01    1.0120030469e+05
    1.3809989393e-01    1.0120030469e+05
    1.3810977340e-01    1.0120030469e+05
    1.3811965287e-01    1.0120030469e+05
    1.3812994957e-01    1.0120030469e+05
    1.3813982904e-01    1.0120030469e+05
    1.3814970851e-01    1.0120030469e+05
    1.3815960288e-01    1.0120030469e+05
    1.3816988468e-01    1.0120030469e+05
    1.3817977905e-01    1.0120030469e+05
    1.3818965852e-01    1.0120030469e+05
    1.3819995522e-01    1.0120030469e+05
    1.3820983469e-01    1.0120030469e+05
    1.3821971416e-01    1.0120030469e+05
    1.3822959363e-01    1.0120030469e+05
    1.3823989034e-01    1.0120030469e+05
    1.3824978471e-01    1.0120030469e+05
    1.3825966418e-01    1.0120030469e+05
    1.3826996088e-01    1.0120030469e+05
    1.3827984035e-01    1.0120028906e+05
    1.3828971982e-01    1.0120028906e+05
    1.3829959929e-01    1.0120028906e+05
    1.3830989599e-01    1.0120028906e+05
    1.3831977546e-01    1.0120028906e+05
    1.3832966983e-01    1.0120028906e+05
    1.3833995163e-01    1.0120028906e+05
    1.3834984601e-01    1.0120028906e+05
    1.3835972548e-01    1.0120028906e+05
    1.3836960495e-01    1.0120028906e+05
    1.3837990165e-01    1.0120028906e+05
    1.3838978112e-01    1.0120028906e+05
    1.3839966059e-01    1.0120028906e+05
    1.3840995729e-01    1.0120028906e+05
    1.3841983676e-01    1.0120028906e+05
    1.3842973113e-01    1.0120028906e+05
    1.3843961060e-01    1.0120028906e+05
    1.3844990730e-01    1.0120028906e+05
    1.3845978677e-01    1.0120028906e+05
    1.3846966624e-01    1.0120028906e+05
    1.3847996294e-01    1.0120028906e+05
    1.3848984241e-01    1.0120028906e+05
    1.3849973679e-01    1.0120028906e+05
    1.3850961626e-01    1.0120028906e+05
    1.3851991296e-01    1.0120028906e+05
    1.3852979243e-01    1.0120028906e+05
    1.3853967190e-01    1.0120028906e+05
    1.3854996860e-01    1.0120028906e+05
    1.3855984807e-01    1.0120028906e+05
    1.3856972754e-01    1.0120028906e+05
    1.3857962191e-01    1.0120028906e+05
    1.3858990371e-01    1.0120028906e+05
    1.3859979808e-01    1.0120028906e+05
    1.3860967755e-01    1.0120028906e+05
    1.3861997426e-01    1.0120028906e+05
    1.3862985373e-01    1.0120028906e+05
    1.3863973320e-01    1.0120028906e+05
    1.3864961267e-01    1.0120028906e+05
    1.3865990937e-01    1.0120028906e+05
    1.3866980374e-01    1.0120028906e+05
    1.3867968321e-01    1.0120028906e+05
    1.3868997991e-01    1.0120028906e+05
    1.3869985938e-01    1.0120028906e+05
    1.3870973885e-01    1.0120028906e+05
    1.3871961832e-01    1.0120028906e+05
    1.3872991502e-01    1.0120028906e+05
    1.3873979449e-01    1.0120028906e+05
    1.3874968886e-01    1.0120028906e+05
    1.3875997066e-01    1.0120028906e+05
    1.3876986504e-01    1.0120028906e+05
    1.3877974451e-01    1.0120028906e+05
    1.3878962398e-01    1.0120028906e+05
    1.3879992068e-01    1.0120028906e+05
    1.3880980015e-01    1.0120028906e+05
    1.3881967962e-01    1.0120028906e+05
    1.3882997632e-01    1.0120028906e+05
    1.3883985579e-01    1.0120028906e+05
    1.3884975016e-01    1.0120028906e+05
    1.3885962963e-01    1.0120028906e+05
    1.3886992633e-01    1.0120028906e+05
    1.3887980580e-01    1.0120028906e+05
    1.3888968527e-01    1.0120028906e+05
    1.3889998198e-01    1.0120028906e+05
    1.3890986145e-01    1.0120028906e+05
    1.3891975582e-01    1.0120028906e+05
    1.3892963529e-01    1.0120028906e+05
    1.3893993199e-01    1.0120028906e+05
    1.3894981146e-01    1.0120028906e+05
    1.3895969093e-01    1.0120028906e+05
    1.3896998763e-01    1.0120028906e+05
    1.3897986710e-01    1.0120028906e+05
    1.3898974657e-01    1.0120028906e+05
    1.3899964094e-01    1.0120028906e+05
    1.3900992274e-01    1.0120028906e+05
    1.3901981711e-01    1.0120028906e+05
    1.3902969658e-01    1.0120028906e+05
    1.3903999329e-01    1.0120028906e+05
    1.3904987276e-01    1.0120028906e+05
    1.3905975223e-01    1.0120028906e+05
    1.3906963170e-01    1.0120028906e+05
    1.3907992840e-01    1.0120028906e+05
    1.3908980787e-01    1.0120028906e+05
    1.3909970224e-01    1.0120028906e+05
    1.3910999894e-01    1.0120028906e+05
    1.3911987841e-01    1.0120028906e+05
    1.3912975788e-01    1.0120028906e+05
    1.3913963735e-01    1.0120028906e+05
    1.3914993405e-01    1.0120028906e+05
    1.3915981352e-01    1.0120028906e+05
    1.3916970789e-01    1.0120028906e+05
    1.3917998970e-01    1.0120028906e+05
    1.3918988407e-01    1.0120028906e+05
    1.3919976354e-01    1.0120028906e+05
    1.3920964301e-01    1.0120028906e+05
    1.3921993971e-01    1.0120028906e+05
    1.3922981918e-01    1.0120028906e+05
    1.3923969865e-01    1.0120028906e+05
    1.3924999535e-01    1.0120028906e+05
    1.3925987482e-01    1.0120028906e+05
    1.3926976919e-01    1.0120028906e+05
    1.3927964866e-01    1.0120028906e+05
    1.3928994536e-01    1.0120028906e+05
    1.3929982483e-01    1.0120028906e+05
    1.3930970430e-01    1.0120028906e+05
    1.3931958377e-01    1.0120028906e+05
    1.3932988048e-01    1.0120028906e+05
    1.3933975995e-01    1.0120028906e+05
    1.3934965432e-01    1.0120028906e+05
    1.3935995102e-01    1.0120028906e+05
    1.3936983049e-01    1.0120028906e+05
    1.3937970996e-01    1.0120028906e+05
    1.3938958943e-01    1.0120028906e+05
    1.3939988613e-01    1.0120028906e+05
    1.3940976560e-01    1.0120028906e+05
    1.3941965997e-01    1.0120028906e+05
    1.3942994177e-01    1.0120028906e+05
    1.3943983614e-01    1.0120028906e+05
    1.3944971561e-01    1.0120028906e+05
    1.3945959508e-01    1.0120028906e+05
    1.3946989179e-01    1.0120028906e+05
    1.3947977126e-01    1.0120028906e+05
    1.3948965073e-01    1.0120028906e+05
    1.3949994743e-01    1.0120028906e+05
    1.3950982690e-01    1.0120028906e+05
    1.3951972127e-01    1.0120028906e+05
    1.3952960074e-01    1.0120028906e+05
    1.3953989744e-01    1.0120028906e+05
    1.3954977691e-01    1.0120028906e+05
    1.3955965638e-01    1.0120028906e+05
    1.3956995308e-01    1.0120028906e+05
    1.3957983255e-01    1.0120028906e+05
    1.3958971202e-01    1.0120028906e+05
    1.3959960639e-01    1.0120028906e+05
    1.3960990310e-01    1.0120028906e+05
    1.3961978257e-01    1.0120028906e+05
    1.3962966204e-01    1.0120028906e+05
    1.3963995874e-01    1.0120028906e+05
    1.3964983821e-01    1.0120028906e+05
    1.3965971768e-01    1.0120028906e+05
    1.3966961205e-01    1.0120028906e+05
    1.3967989385e-01    1.0120028906e+05
    1.3968978822e-01    1.0120028906e+05
    1.3969966769e-01    1.0120028906e+05
    1.3970996439e-01    1.0120028906e+05
    1.3971984386e-01    1.0120028906e+05
    1.3972972333e-01    1.0120028906e+05
    1.3973960280e-01    1.0120028906e+05
    1.3974989951e-01    1.0120028906e+05
    1.3975977898e-01    1.0120028906e+05
    1.3976967335e-01    1.0120028906e+05
    1.3977997005e-01    1.0120028906e+05
    1.3978984952e-01    1.0120028906e+05
    1.3979972899e-01    1.0120028906e+05
    1.3980960846e-01    1.0120028906e+05
    1.3981990516e-01    1.0120028906e+05
    1.3982978463e-01    1.0120028906e+05
    1.3983967900e-01    1.0120028906e+05
    1.3984996080e-01    1.0120028906e+05
    1.3985985518e-01    1.0120028906e+05
    1.3986973464e-01    1.0120028906e+05
    1.3987961411e-01    1.0120028906e+05
    1.3988991082e-01    1.0120028906e+05
    1.3989979029e-01    1.0120028906e+05
    1.3990966976e-01    1.0120028906e+05
    1.3991996646e-01    1.0120028906e+05
    1.3992984593e-01    1.0120028906e+05
    1.3993974030e-01    1.0120028906e+05
    1.3994961977e-01    1.0120028906e+05
    1.3995991647e-01    1.0120028906e+05
    1.3996979594e-01    1.0120028906e+05
    1.3997967541e-01    1.0120028906e+05
    1.3998997211e-01    1.0120028906e+05
    1.3999985158e-01    1.0120028906e+05
endcurve
