Curveplot
LS-DYNA keyword deck by LS-PrePost                          
Time
Pressure
Defined Connection
Pressure @ 13 #pts=12001
* Minval=     8.0951765625e+04 at time=         0.0190798268
* Maxval=     2.2160560938e+05 at time=         0.0080999713
    0.0000000000e+00    1.0120000000e+05
    9.9485332612e-06    1.0120000000e+05
    1.9897428501e-05    1.0120000000e+05
    2.9985541914e-05    1.0120000000e+05
    3.9959541027e-05    1.0120000000e+05
    4.9952537665e-05    1.0120000000e+05
    5.9986312408e-05    1.0120000000e+05
    6.9987807365e-05    1.0120000000e+05
    7.9961428128e-05    1.0120000000e+05
    8.9989662229e-05    1.0120000000e+05
    9.9953424069e-05    1.0120000000e+05
    1.0998438665e-04    1.0120000000e+05
    1.1993311637e-04    1.0120000000e+05
    1.2999880710e-04    1.0120000000e+05
    1.3996113557e-04    1.0120000000e+05
    1.4995495440e-04    1.0120000000e+05
    1.5997486480e-04    1.0120000000e+05
    1.6993767349e-04    1.0120000000e+05
    1.7998965632e-04    1.0120000000e+05
    1.8996957806e-04    1.0120000000e+05
    1.9994744798e-04    1.0120000000e+05
    2.0999854314e-04    1.0120000000e+05
    2.1995393035e-04    1.0120000000e+05
    2.2997113410e-04    1.0120000000e+05
    2.3996182426e-04    1.0120000000e+05
    2.4991936516e-04    1.0120000000e+05
    2.5992418523e-04    1.0120000000e+05
    2.6997269015e-04    1.0120000000e+05
    2.7997195139e-04    1.0120000000e+05
    2.8991457657e-04    1.0120000000e+05
    2.9997722595e-04    1.0120000000e+05
    3.0997244176e-04    1.0120000000e+05
    3.1998654595e-04    1.0120000000e+05
    3.2991866465e-04    1.0120000000e+05
    3.3994481782e-04    1.0120000000e+05
    3.4996221075e-04    1.0120000000e+05
    3.5997564555e-04    1.0120000000e+05
    3.6998037831e-04    1.0120000000e+05
    3.7997477921e-04    1.0120000000e+05
    3.8995532668e-04    1.0120000000e+05
    3.9992353413e-04    1.0120000000e+05
    4.0997815086e-04    1.0120000000e+05
    4.1991431499e-04    1.0120000000e+05
    4.2993342504e-04    1.0120000000e+05
    4.3993550935e-04    1.0120000000e+05
    4.4991719187e-04    1.0120000000e+05
    4.5998307178e-04    1.0120000000e+05
    4.6991818817e-04    1.0120000000e+05
    4.7993750195e-04    1.0120000000e+05
    4.8993190285e-04    1.0120000000e+05
    4.9989955733e-04    1.0120000000e+05
    5.0994980847e-04    1.0120000000e+05
    5.1996792899e-04    1.0120000000e+05
    5.2995985607e-04    1.0120000000e+05
    5.3992011817e-04    1.0120000000e+05
    5.4996157996e-04    1.0120000000e+05
    5.5996957235e-04    1.0120000000e+05
    5.6994031183e-04    1.0120000000e+05
    5.7999347337e-04    1.0120000000e+05
    5.8989139507e-04    1.0120000000e+05
    5.9998722281e-04    1.0120000000e+05
    6.0992431827e-04    1.0120000000e+05
    6.1993807321e-04    1.0120000000e+05
    6.2991189770e-04    1.0120000000e+05
    6.3996476820e-04    1.0120000000e+05
    6.4997369191e-04    1.0120000000e+05
    6.5993692260e-04    1.0120000000e+05
    6.6997838439e-04    1.0120000000e+05
    6.7996978760e-04    1.0120000000e+05
    6.8991415901e-04    1.0120000000e+05
    6.9993606303e-04    1.0120000000e+05
    7.0990651147e-04    1.0120000000e+05
    7.1995449252e-04    1.0120000000e+05
    7.2994915536e-04    1.0120000000e+05
    7.3988561053e-04    1.0120000000e+05
    7.4990146095e-04    1.0120000000e+05
    7.5999490218e-04    1.0120000000e+05
    7.6989474474e-04    1.0120000000e+05
    7.7987008262e-04    1.0120000000e+05
    7.8992184717e-04    1.0120000000e+05
    7.9991185339e-04    1.0120000000e+05
    8.0997525947e-04    1.0120000000e+05
    8.1997719826e-04    1.0120000000e+05
    8.2991312956e-04    1.0120000000e+05
    8.3992403233e-04    1.0120000000e+05
    8.4986625006e-04    1.0120000000e+05
    8.5988314822e-04    1.0120000000e+05
    8.6997565813e-04    1.0120000000e+05
    8.7999692187e-04    1.0120000000e+05
    8.8994443649e-04    1.0120000000e+05
    8.9996226598e-04    1.0120000000e+05
    9.0990745230e-04    1.0120000000e+05
    9.1992621310e-04    1.0120000000e+05
    9.2986598611e-04    1.0120000000e+05
    9.3987892615e-04    1.0120000000e+05
    9.4996578991e-04    1.0120000000e+05
    9.5997063909e-04    1.0120000000e+05
    9.6989085432e-04    1.0120000000e+05
    9.7988313064e-04    1.0120000000e+05
    9.8994374275e-04    1.0120000000e+05
    9.9991634488e-04    1.0120000000e+05
    1.0099657811e-03    1.0120000000e+05
    1.0199244134e-03    1.0120000000e+05
    1.0299545247e-03    1.0120000000e+05
    1.0398906888e-03    1.0120000000e+05
    1.0498976335e-03    1.0120000000e+05
    1.0599759407e-03    1.0120000000e+05
    1.0699566919e-03    1.0120000000e+05
    1.0798370931e-03    1.0120000000e+05
    1.0899587069e-03    1.0120000000e+05
    1.0999790393e-03    1.0120000000e+05
    1.1098949471e-03    1.0120000000e+05
    1.1198744178e-03    1.0120000000e+05
    1.1299289763e-03    1.0120000000e+05
    1.1398757342e-03    1.0120000000e+05
    1.1498910608e-03    1.0120000000e+05
    1.1599757709e-03    1.0120000000e+05
    1.1699484894e-03    1.0120000000e+05
    1.1799895437e-03    1.0120000000e+05
    1.1899151141e-03    1.0120000000e+05
    1.1999078561e-03    1.0120000000e+05
    1.2099684682e-03    1.0120000000e+05
    1.2199096382e-03    1.0120000000e+05
    1.2299176306e-03    1.0120000000e+05
    1.2399932602e-03    1.0120000000e+05
    1.2499451404e-03    1.0120000000e+05
    1.2599637266e-03    1.0120000000e+05
    1.2698548380e-03    1.0120000000e+05
    1.2798114913e-03    1.0120000000e+05
    1.2898345012e-03    1.0120000000e+05
    1.2999242172e-03    1.0120000000e+05
    1.3098821510e-03    1.0120000000e+05
    1.3198980596e-03    1.0120000000e+05
    1.3299837010e-03    1.0120000000e+05
    1.3399374438e-03    1.0120000000e+05
    1.3499566121e-03    1.0120000000e+05
    1.3598353835e-03    1.0120000000e+05
    1.3699863339e-03    1.0120000000e+05
    1.3799959561e-03    1.0120000000e+05
    1.3898606412e-03    1.0120000000e+05
    1.3997890055e-03    1.0120000000e+05
    1.4099954860e-03    1.0120000000e+05
    1.4198403805e-03    1.0120000000e+05
    1.4299647883e-03    1.0120000000e+05
    1.4399386710e-03    1.0120000000e+05
    1.4499773970e-03    1.0120000000e+05
    1.4598614071e-03    1.0120000000e+05
    1.4698088635e-03    1.0120000000e+05
    1.4798205812e-03    1.0120000000e+05
    1.4898972586e-03    1.0120000000e+05
    1.4998138649e-03    1.0120000000e+05
    1.5097947326e-03    1.0120000000e+05
    1.5198393958e-03    1.0120000000e+05
    1.5299502993e-03    1.0120000000e+05
    1.5398942633e-03    1.0120000000e+05
    1.5499035362e-03    1.0120000000e+05
    1.5599771868e-03    1.0120000000e+05
    1.5698790085e-03    1.0120000000e+05
    1.5798441600e-03    1.0120000000e+05
    1.5898736892e-03    1.0120000000e+05
    1.5999680618e-03    1.0120000000e+05
    1.6098855995e-03    1.0120000000e+05
    1.6198675148e-03    1.0120000000e+05
    1.6299148556e-03    1.0120000000e+05
    1.6397786094e-03    1.0120000000e+05
    1.6499547055e-03    1.0120000000e+05
    1.6599470982e-03    1.0120000000e+05
    1.6697518295e-03    1.0120000000e+05
    1.6798720462e-03    1.0120000000e+05
    1.6898036702e-03    1.0120000000e+05
    1.6997989733e-03    1.0120000000e+05
    1.7098587705e-03    1.0120000000e+05
    1.7199839931e-03    1.0120000000e+05
    1.7299135216e-03    1.0120000000e+05
    1.7399068456e-03    1.0120000000e+05
    1.7499647802e-03    1.0120000000e+05
    1.7598208506e-03    1.0120000000e+05
    1.7697404837e-03    1.0120000000e+05
    1.7799944617e-03    1.0120000000e+05
    1.7897714861e-03    1.0120000000e+05
    1.7998851836e-03    1.0120000000e+05
    1.8097892171e-03    1.0120000000e+05
    1.8197571626e-03    1.0120000000e+05
    1.8297899514e-03    1.0120000000e+05
    1.8398883985e-03    1.0120000000e+05
    1.8497699639e-03    1.0120000000e+05
    1.8597150920e-03    1.0120000000e+05
    1.8697179621e-03    1.0120000000e+05
    1.8797885859e-03    1.0120000000e+05
    1.8899308052e-03    1.0120000000e+05
    1.8998479936e-03    1.0120000000e+05
    1.9098295597e-03    1.0120000000e+05
    1.9198771333e-03    1.0120000000e+05
    1.9299909472e-03    1.0120000000e+05
    1.9398718141e-03    1.0120000000e+05
    1.9498172915e-03    1.0120000000e+05
    1.9598281942e-03    1.0120000000e+05
    1.9699053373e-03    1.0120000000e+05
    1.9797417335e-03    1.0120000000e+05
    1.9899529871e-03    1.0120000000e+05
    1.9999209326e-03    1.0120000000e+05
    2.0099550020e-03    1.0120000000e+05
    2.0197399426e-03    1.0120000000e+05
    2.0299076568e-03    1.0120000000e+05
    2.0398236811e-03    1.0120000000e+05
    2.0498058293e-03    1.0120000000e+05
    2.0598547999e-03    1.0120000000e+05
    2.0699724555e-03    1.0120000000e+05
    2.0798291080e-03    1.0120000000e+05
    2.0897518843e-03    1.0120000000e+05
    2.0997414831e-03    1.0120000000e+05
    2.1097944118e-03    1.0120000000e+05
    2.1199178882e-03    1.0120000000e+05
    2.1297733765e-03    1.0120000000e+05
    2.1396952216e-03    1.0120000000e+05
    2.1496845875e-03    1.0120000000e+05
    2.1597428713e-03    1.0120000000e+05
    2.1698707715e-03    1.0120000000e+05
    2.1797167137e-03    1.0120000000e+05
    2.1899852436e-03    1.0120000000e+05
    2.1999694873e-03    1.0120000000e+05
    2.2096626926e-03    1.0120000000e+05
    2.2197840735e-03    1.0120000000e+05
    2.2299776319e-03    1.0120000000e+05
    2.2398761939e-03    1.0120000000e+05
    2.2498436738e-03    1.0120000000e+05
    2.2598777432e-03    1.0120000000e+05
    2.2699800320e-03    1.0120000000e+05
    2.2797833662e-03    1.0120000000e+05
    2.2896553855e-03    1.0120000000e+05
    2.2999809589e-03    1.0120000000e+05
    2.3099964019e-03    1.0120000000e+05
    2.3196949624e-03    1.0120000000e+05
    2.3298533633e-03    1.0120000000e+05
    2.3396918550e-03    1.0120000000e+05
    2.3499983363e-03    1.0120000000e+05
    2.3599818815e-03    1.0120000000e+05
    2.3696345743e-03    1.0120000000e+05
    2.3797624744e-03    1.0120000000e+05
    2.3899637163e-03    1.0120000000e+05
    2.3998292163e-03    1.0120000000e+05
    2.4097694550e-03    1.0120000000e+05
    2.4197835010e-03    1.0120000000e+05
    2.4298727512e-03    1.0120000000e+05
    2.4396134540e-03    1.0120000000e+05
    2.4498540442e-03    1.0120000000e+05
    2.4597425945e-03    1.0120000000e+05
    2.4697014596e-03    1.0120000000e+05
    2.4797057267e-03    1.0120000000e+05
    2.4897493422e-03    1.0120000000e+05
    2.4998332374e-03    1.0120000000e+05
    2.5099450722e-03    1.0120000000e+05
    2.5196424685e-03    1.0120000000e+05
    2.5297882967e-03    1.0120000000e+05
    2.5399560109e-03    1.0120000000e+05
    2.5497134775e-03    1.0120000000e+05
    2.5599047076e-03    1.0120000000e+05
    2.5696589146e-03    1.0120000000e+05
    2.5798815768e-03    1.0120000000e+05
    2.5896299630e-03    1.0120000000e+05
    2.5998384226e-03    1.0120000000e+05
    2.6096212678e-03    1.0120000000e+05
    2.6198080741e-03    1.0120000000e+05
    2.6299960446e-03    1.0120000000e+05
    2.6397439651e-03    1.0120000000e+05
    2.6499361265e-03    1.0120000000e+05
    2.6596884709e-03    1.0120000000e+05
    2.6698647998e-03    1.0120000000e+05
    2.6795957237e-03    1.0120000000e+05
    2.6897741482e-03    1.0120000000e+05
    2.6999628171e-03    1.0120000000e+05
    2.7097132988e-03    1.0120000000e+05
    2.7198363096e-03    1.0120000000e+05
    2.7296268381e-03    1.0120000000e+05
    2.7398371603e-03    1.0120000000e+05
    2.7496030089e-03    1.0120000000e+05
    2.7597418521e-03    1.0120000000e+05
    2.7698613703e-03    1.0120000000e+05
    2.7796200011e-03    1.0120000000e+05
    2.7898193803e-03    1.0120000000e+05
    2.7995996643e-03    1.0120000000e+05
    2.8098358307e-03    1.0120000000e+05
    2.8196584899e-03    1.0120000000e+05
    2.8299211990e-03    1.0120000000e+05
    2.8397482820e-03    1.0120000000e+05
    2.8495853767e-03    1.0120000000e+05
    2.8599193320e-03    1.0120000000e+05
    2.8697995003e-03    1.0120000000e+05
    2.8796938714e-03    1.0120000000e+05
    2.8895968571e-03    1.0120000000e+05
    2.8999696951e-03    1.0120000000e+05
    2.9098819941e-03    1.0120000000e+05
    2.9197954573e-03    1.0120000000e+05
    2.9297096189e-03    1.0120000000e+05
    2.9396186583e-03    1.0120000000e+05
    2.9499703087e-03    1.0120000000e+05
    2.9598474503e-03    1.0120000000e+05
    2.9697101563e-03    1.0120000000e+05
    2.9799870681e-03    1.0120000000e+05
    2.9897997156e-03    1.0120000000e+05
    2.9995799996e-03    1.0120000000e+05
    3.0097593553e-03    1.0120000000e+05
    3.0198916793e-03    1.0120000000e+05
    3.0299657956e-03    1.0120000000e+05
    3.0399749521e-03    1.0120000000e+05
    3.0499242712e-03    1.0120000000e+05
    3.0598128214e-03    1.0120000000e+05
    3.0696408357e-03    1.0120000000e+05
    3.0798325315e-03    1.0120000000e+05
    3.0899599660e-03    1.0120000000e+05
    3.0996061396e-03    1.0120000000e+05
    3.1096078455e-03    1.0120000000e+05
    3.1199632213e-03    1.0120000000e+05
    3.1298419926e-03    1.0120000000e+05
    3.1396602280e-03    1.0120000000e+05
    3.1498242170e-03    1.0120000000e+05
    3.1599241775e-03    1.0120000000e+05
    3.1699608080e-03    1.0120000000e+05
    3.1799343415e-03    1.0120000000e+05
    3.1898438465e-03    1.0120000000e+05
    3.1996944454e-03    1.0120000000e+05
    3.2098744996e-03    1.0120000000e+05
    3.2199895941e-03    1.0120000000e+05
    3.2296548598e-03    1.0120000000e+05
    3.2396442257e-03    1.0120000000e+05
    3.2499481458e-03    1.0120000000e+05
    3.2598082907e-03    1.0120000000e+05
    3.2699834555e-03    1.0120000000e+05
    3.2797192689e-03    1.0120000000e+05
    3.2897654455e-03    1.0120000000e+05
    3.2997466624e-03    1.0120000000e+05
    3.3096633852e-03    1.0120000000e+05
    3.3198776655e-03    1.0120000000e+05
    3.3296642359e-03    1.0120000000e+05
    3.3397471998e-03    1.0120000000e+05
    3.3497638069e-03    1.0120000000e+05
    3.3597138245e-03    1.0120000000e+05
    3.3699497581e-03    1.0120000000e+05
    3.3797661308e-03    1.0120000000e+05
    3.3898644615e-03    1.0120000000e+05
    3.3998936415e-03    1.0120000000e+05
    3.4098536707e-03    1.0120000000e+05
    3.4197457135e-03    1.0120000000e+05
    3.4299071413e-03    1.0120000000e+05
    3.4399966244e-03    1.0120000000e+05
    3.4496816806e-03    1.0120000000e+05
    3.4599611536e-03    1.0120000000e+05
    3.4698361997e-03    1.0120000000e+05
    3.4799666610e-03    1.0120000000e+05
    3.4896987490e-03    1.0120000000e+05
    3.4996820614e-03    1.0120000000e+05
    3.5099096131e-03    1.0120000000e+05
    3.5197422840e-03    1.0120000000e+05
    3.5298150033e-03    1.0120000000e+05
    3.5398092587e-03    1.0120000000e+05
    3.5497255158e-03    1.0120000000e+05
    3.5598706454e-03    1.0120000000e+05
    3.5699333530e-03    1.0120000000e+05
    3.5799141042e-03    1.0120000000e+05
    3.5898128990e-03    1.0120000000e+05
    3.5999261308e-03    1.0120000000e+05
    3.6099525169e-03    1.0120000000e+05
    3.6198925227e-03    1.0120000000e+05
    3.6297461484e-03    1.0120000000e+05
    3.6397995427e-03    1.0120000000e+05
    3.6497614346e-03    1.0120000000e+05
    3.6599126179e-03    1.0120000000e+05
    3.6699667107e-03    1.0120000000e+05
    3.6799237132e-03    1.0120000000e+05
    3.6897838581e-03    1.0120000000e+05
    3.6998165306e-03    1.0120000000e+05
    3.7097462919e-03    1.0120000000e+05
    3.7198367063e-03    1.0120000000e+05
    3.7298179232e-03    1.0120000000e+05
    3.7399474531e-03    1.0120000000e+05
    3.7499605678e-03    1.0120000000e+05
    3.7598570343e-03    1.0120000000e+05
    3.7698852830e-03    1.0120000000e+05
    3.7797889672e-03    1.0120000000e+05
    3.7898097653e-03    1.0120000000e+05
    3.7999371998e-03    1.0120000000e+05
    3.8099237718e-03    1.0120000000e+05
    3.8197676186e-03    1.0120000000e+05
    3.8299257867e-03    1.0120000000e+05
    3.8399235345e-03    1.0120000000e+05
    3.8499801885e-03    1.0120000000e+05
    3.8598640822e-03    1.0120000000e+05
    3.8699989673e-03    1.0120000000e+05
    3.8799380418e-03    1.0120000000e+05
    3.8898820058e-03    1.0120000000e+05
    3.8998122327e-03    1.0120000000e+05
    3.9099045098e-03    1.0120000000e+05
    3.9199306630e-03    1.0120000000e+05
    3.9298655465e-03    1.0120000000e+05
    3.9398595691e-03    1.0120000000e+05
    3.9498619735e-03    1.0120000000e+05
    3.9599775337e-03    1.0120000000e+05
    3.9699557237e-03    1.0120000000e+05
    3.9798556827e-03    1.0120000000e+05
    3.9899433032e-03    1.0120000000e+05
    3.9999014698e-03    1.0120000000e+05
    4.0099462494e-03    1.0120000000e+05
    4.0199826472e-03    1.0120000000e+05
    4.0299105458e-03    1.0120000000e+05
    4.0399311110e-03    1.0120000000e+05
    4.0499484167e-03    1.0120000000e+05
    4.0598781779e-03    1.0120000000e+05
    4.0699169040e-03    1.0120000000e+05
    4.0798746049e-03    1.0120000000e+05
    4.0898541920e-03    1.0120000000e+05
    4.0999194607e-03    1.0120000000e+05
    4.1098310612e-03    1.0120000000e+05
    4.1199098341e-03    1.0120000000e+05
    4.1299466975e-03    1.0120000000e+05
    4.1399011388e-03    1.0120000000e+05
    4.1499887593e-03    1.0120000000e+05
    4.1598319076e-03    1.0120000000e+05
    4.1699395515e-03    1.0120000000e+05
    4.1799745522e-03    1.0120000000e+05
    4.1898917407e-03    1.0120000000e+05
    4.1999141686e-03    1.0120000000e+05
    4.2098183185e-03    1.0120000000e+05
    4.2199711315e-03    1.0120000000e+05
    4.2298263870e-03    1.0120000000e+05
    4.2399363592e-03    1.0120000000e+05
    4.2499047704e-03    1.0120000000e+05
    4.2599448934e-03    1.0120000000e+05
    4.2698513716e-03    1.0120000000e+05
    4.2799985968e-03    1.0120000000e+05
    4.2898133397e-03    1.0120000000e+05
    4.2998576537e-03    1.0120000000e+05
    4.3099806644e-03    1.0120000000e+05
    4.3199267238e-03    1.0120000000e+05
    4.3299458921e-03    1.0120000000e+05
    4.3399836868e-03    1.0120000000e+05
    4.3498841114e-03    1.0120000000e+05
    4.3598064221e-03    1.0120000000e+05
    4.3699862435e-03    1.0120000000e+05
    4.3799942359e-03    1.0120000000e+05
    4.3898457661e-03    1.0120000000e+05
    4.3999426998e-03    1.0120000000e+05
    4.4098566286e-03    1.0120000000e+05
    4.4198394753e-03    1.0120000000e+05
    4.4298139401e-03    1.0120000000e+05
    4.4398773462e-03    1.0120000000e+05
    4.4499230571e-03    1.0120000000e+05
    4.4598383829e-03    1.0120000000e+05
    4.4699707069e-03    1.0120000000e+05
    4.4799284078e-03    1.0120000000e+05
    4.4899480417e-03    1.0120000000e+05
    4.4999453239e-03    1.0120000000e+05
    4.5098369010e-03    1.0120000000e+05
    4.5198881999e-03    1.0120000000e+05
    4.5298165642e-03    1.0120000000e+05
    4.5399679802e-03    1.0120000000e+05
    4.5499149710e-03    1.0120000000e+05
    4.5599448495e-03    1.0120000000e+05
    4.5699477196e-03    1.0120000000e+05
    4.5798067003e-03    1.0120000000e+05
    4.5898943208e-03    1.0120000000e+05
    4.5997938141e-03    1.0120000000e+05
    4.6099559404e-03    1.0120000000e+05
    4.6199182980e-03    1.0120000000e+05
    4.6299179085e-03    1.0120000000e+05
    4.6399417333e-03    1.0120000000e+05
    4.6497797593e-03    1.0120000000e+05
    4.6598599292e-03    1.0120000000e+05
    4.6699708328e-03    1.0120000000e+05
    4.6798926778e-03    1.0120000000e+05
    4.6898247674e-03    1.0120000000e+05
    4.6997917816e-03    1.0120000000e+05
    4.7097872011e-03    1.0120000000e+05
    4.7197942622e-03    1.0120000000e+05
    4.7298334539e-03    1.0120000000e+05
    4.7398959287e-03    1.0120000000e+05
    4.7499751672e-03    1.0120000000e+05
    4.7598504461e-03    1.0120000000e+05
    4.7699781135e-03    1.0120000000e+05
    4.7798920423e-03    1.0120000000e+05
    4.7898255289e-03    1.0120000000e+05
    4.7997785732e-03    1.0120000000e+05
    4.8099854030e-03    1.0120000000e+05
    4.8199710436e-03    1.0120000000e+05
    4.8299771734e-03    1.0120000000e+05
    4.8397700302e-03    1.0120000000e+05
    4.8498082906e-03    1.0120000000e+05
    4.8598563299e-03    1.0120000000e+05
    4.8699276522e-03    1.0120000000e+05
    4.8797796480e-03    1.0120000000e+05
    4.8898709938e-03    1.0120000000e+05
    4.8999786377e-03    1.0120000000e+05
    4.9098674208e-03    1.0120000000e+05
    4.9197645858e-03    1.0120000000e+05
    4.9299020320e-03    1.0120000000e+05
    4.9398187548e-03    1.0120000000e+05
    4.9499799497e-03    1.0120000000e+05
    4.9599092454e-03    1.0120000000e+05
    4.9698459916e-03    1.0120000000e+05
    4.9797883257e-03    1.0120000000e+05
    4.9899718724e-03    1.0120000000e+05
    4.9999197945e-03    1.0120000000e+05
    5.0098695792e-03    1.0120000000e+05
    5.0198193640e-03    1.0120000000e+05
    5.0297696143e-03    1.0120000000e+05
    5.0399568863e-03    1.0120000000e+05
    5.0499080680e-03    1.0120000000e+05
    5.0598592497e-03    1.0120000000e+05
    5.0698104315e-03    1.0120000000e+05
    5.0799991004e-03    1.0120000000e+05
    5.0899498165e-03    1.0120000000e+05
    5.0999009982e-03    1.0120000000e+05
    5.1098517142e-03    1.0120000000e+05
    5.1198019646e-03    1.0120000000e+05
    5.1299887709e-03    1.0120000000e+05
    5.1399385557e-03    1.0120000000e+05
    5.1498874091e-03    1.0120000000e+05
    5.1598362625e-03    1.0120000000e+05
    5.1697841845e-03    1.0120000000e+05
    5.1799686626e-03    1.0120000000e+05
    5.1899156533e-03    1.0120000000e+05
    5.1998621784e-03    1.0120000000e+05
    5.2098077722e-03    1.0120000000e+05
    5.2199899219e-03    1.0120000000e+05
    5.2299331874e-03    1.0120000000e+05
    5.2398750558e-03    1.0120000000e+05
    5.2498197183e-03    1.0120000000e+05
    5.2599976771e-03    1.0120000000e+05
    5.2699339576e-03    1.0120000000e+05
    5.2798762918e-03    1.0120000000e+05
    5.2898242138e-03    1.0120000000e+05
    5.2999970503e-03    1.0120000000e+05
    5.3099407814e-03    1.0120000000e+05
    5.3199091926e-03    1.0120000000e+05
    5.3298664279e-03    1.0120000000e+05
    5.3398227319e-03    1.0120000000e+05
    5.3498032503e-03    1.0120000000e+05
    5.3597907536e-03    1.0120000000e+05
    5.3697689436e-03    1.0120000000e+05
    5.3797680885e-03    1.0120000000e+05
    5.3897849284e-03    1.0120000000e+05
    5.3997938521e-03    1.0120000000e+05
    5.4098120891e-03    1.0120000000e+05
    5.4198545404e-03    1.0120000000e+05
    5.4298997857e-03    1.0120000000e+05
    5.4399403743e-03    1.0120000000e+05
    5.4499991238e-03    1.0120000000e+05
    5.4598310962e-03    1.0120000000e+05
    5.4699028842e-03    1.0120000000e+05
    5.4799797945e-03    1.0120000000e+05
    5.4898322560e-03    1.0120000000e+05
    5.4999329150e-03    1.0120000000e+05
    5.5097956210e-03    1.0120000000e+05
    5.5199097842e-03    1.0120000000e+05
    5.5297934450e-03    1.0120000000e+05
    5.5399225093e-03    1.0120000000e+05
    5.5498178117e-03    1.0120000000e+05
    5.5599627085e-03    1.0120000000e+05
    5.5698715150e-03    1.0120000000e+05
    5.5797877721e-03    1.0120000000e+05
    5.5899559520e-03    1.0120000000e+05
    5.5998861790e-03    1.0120000000e+05
    5.6098243222e-03    1.0120000000e+05
    5.6197699159e-03    1.0120000000e+05
    5.6299678981e-03    1.0120000000e+05
    5.6399260648e-03    1.0120000000e+05
    5.6498898193e-03    1.0120000000e+05
    5.6598628871e-03    1.0120000000e+05
    5.6698415428e-03    1.0120000000e+05
    5.6798262522e-03    1.0120000000e+05
    5.6898146868e-03    1.0120000000e+05
    5.6998119690e-03    1.0120000000e+05
    5.7098162360e-03    1.0120000000e+05
    5.7198260911e-03    1.0120000000e+05
    5.7298419997e-03    1.0120000000e+05
    5.7398625650e-03    1.0120000000e+05
    5.7498933747e-03    1.0120000000e+05
    5.7599279098e-03    1.0120000000e+05
    5.7699680328e-03    1.0120000000e+05
    5.7797660120e-03    1.0120000000e+05
    5.7898177765e-03    1.0120000000e+05
    5.7998751290e-03    1.0120000000e+05
    5.8099362068e-03    1.0120000000e+05
    5.8197574690e-03    1.0120000000e+05
    5.8298320509e-03    1.0120000000e+05
    5.8399150148e-03    1.0120000000e+05
    5.8499979787e-03    1.0120000000e+05
    5.8598397300e-03    1.0120000000e+05
    5.8699329384e-03    1.0120000000e+05
    5.8797867969e-03    1.0120000000e+05
    5.8898911811e-03    1.0120000000e+05
    5.8999969624e-03    1.0120000000e+05
    5.9098666534e-03    1.0120000000e+05
    5.9199850075e-03    1.0120000000e+05
    5.9298658744e-03    1.0120000000e+05
    5.9399921447e-03    1.0120000000e+05
    5.9498772025e-03    1.0120000000e+05
    5.9597711079e-03    1.0120000000e+05
    5.9699146077e-03    1.0120000000e+05
    5.9798164293e-03    1.0120000000e+05
    5.9899631888e-03    1.0120000000e+05
    5.9998738579e-03    1.0120000000e+05
    6.0097863898e-03    1.0120000000e+05
    6.0199531727e-03    1.0120000000e+05
    6.0298740864e-03    1.0120000000e+05
    6.0397959314e-03    1.0120000000e+05
    6.0499785468e-03    1.0120000000e+05
    6.0599092394e-03    1.0120000000e+05
    6.0698487796e-03    1.0120000000e+05
    6.0797850601e-03    1.0120000000e+05
    6.0899793170e-03    1.0120000000e+05
    6.0999281704e-03    1.0120000000e+05
    6.1098765582e-03    1.0120000000e+05
    6.1198347248e-03    1.0120000000e+05
    6.1297877692e-03    1.0120000000e+05
    6.1397571117e-03    1.0120000000e+05
    6.1499695294e-03    1.0120000000e+05
    6.1599421315e-03    1.0120000000e+05
    6.1699161306e-03    1.0120000000e+05
    6.1798868701e-03    1.0120000000e+05
    6.1898701824e-03    1.0120000000e+05
    6.1998502351e-03    1.0120000000e+05
    6.2098456547e-03    1.0120000000e+05
    6.2198461965e-03    1.0120000000e+05
    6.2298430130e-03    1.0120000000e+05
    6.2398333102e-03    1.0120000000e+05
    6.2498245388e-03    1.0120000000e+05
    6.2598250806e-03    1.0120000000e+05
    6.2698335387e-03    1.0120000000e+05
    6.2798452564e-03    1.0120000000e+05
    6.2898537144e-03    1.0120000000e+05
    6.2998598441e-03    1.0120000000e+05
    6.3098655082e-03    1.0120000000e+05
    6.3198679127e-03    1.0120000000e+05
    6.3298707828e-03    1.0120000000e+05
    6.3398834318e-03    1.0120000000e+05
    6.3499021344e-03    1.0120000000e+05
    6.3599189743e-03    1.0120000000e+05
    6.3699334860e-03    1.0120000000e+05
    6.3799461350e-03    1.0120000000e+05
    6.3899583183e-03    1.0120000000e+05
    6.3999700360e-03    1.0120000000e+05
    6.4099817537e-03    1.0120000000e+05
    6.4199934714e-03    1.0120000000e+05
    6.4297555946e-03    1.0120000000e+05
    6.4397696406e-03    1.0120000000e+05
    6.4497855492e-03    1.0120000000e+05
    6.4598037861e-03    1.0120000000e+05
    6.4698220231e-03    1.0120000000e+05
    6.4798393287e-03    1.0120000000e+05
    6.4898557030e-03    1.0120000000e+05
    6.4998706803e-03    1.0120000000e+05
    6.5098856576e-03    1.0120000000e+05
    6.5199001692e-03    1.0120000000e+05
    6.5299146809e-03    1.0120000000e+05
    6.5399291925e-03    1.0120000000e+05
    6.5499432385e-03    1.0120000000e+05
    6.5599572845e-03    1.0120000000e+05
    6.5699708648e-03    1.0120000000e+05
    6.5799844451e-03    1.0120000000e+05
    6.5899975598e-03    1.0120000000e+05
    6.5997601487e-03    1.0120000000e+05
    6.6097732633e-03    1.0120000000e+05
    6.6197859123e-03    1.0120000000e+05
    6.6297985613e-03    1.0120000000e+05
    6.6398107447e-03    1.0120000000e+05
    6.6498233937e-03    1.0120000000e+05
    6.6598369740e-03    1.0120000000e+05
    6.6698514856e-03    1.0120000000e+05
    6.6798655316e-03    1.0120000000e+05
    6.6898786463e-03    1.0120000000e+05
    6.6998903640e-03    1.0120000000e+05
    6.7099011503e-03    1.0120000000e+05
    6.7199114710e-03    1.0120000000e+05
    6.7299213260e-03    1.0120000000e+05
    6.7399311811e-03    1.0120000000e+05
    6.7499428988e-03    1.0120000000e+05
    6.7599555477e-03    1.0120000000e+05
    6.7699691281e-03    1.0120000000e+05
    6.7799827084e-03    1.0120000000e+05
    6.7899972200e-03    1.0120000000e+05
    6.7997602746e-03    1.0120000000e+05
    6.8097729236e-03    1.0120000000e+05
    6.8197846413e-03    1.0120000000e+05
    6.8297949620e-03    1.0120000000e+05
    6.8398052827e-03    1.0120000000e+05
    6.8498146720e-03    1.0120000000e+05
    6.8598277867e-03    1.0120000000e+05
    6.8698455580e-03    1.0120000000e+05
    6.8798628636e-03    1.0120000000e+05
    6.8898783065e-03    1.0120000000e+05
    6.8998932838e-03    1.0120000000e+05
    6.9099077955e-03    1.0120000000e+05
    6.9199223071e-03    1.0120000000e+05
    6.9299410097e-03    1.0120000000e+05
    6.9399611093e-03    1.0120000000e+05
    6.9499802776e-03    1.0120000000e+05
    6.9599985145e-03    1.0120000000e+05
    6.9697652943e-03    1.0120000000e+05
    6.9797826000e-03    1.0120000000e+05
    6.9898026995e-03    1.0120000000e+05
    6.9998255931e-03    1.0120000000e+05
    7.0098475553e-03    1.0120000000e+05
    7.0198685862e-03    1.0120000000e+05
    7.0298882201e-03    1.0120000000e+05
    7.0399097167e-03    1.0120000000e+05
    7.0499354042e-03    1.0120000000e+05
    7.0599601604e-03    1.0120000000e+05
    7.0699839853e-03    1.0120000000e+05
    7.0797568187e-03    1.0120000000e+05
    7.0897806436e-03    1.0120000000e+05
    7.0998081937e-03    1.0120000000e+05
    7.1098352782e-03    1.0120000000e+05
    7.1198614314e-03    1.0120000000e+05
    7.1298871189e-03    1.0120000000e+05
    7.1399146691e-03    1.0120000000e+05
    7.1499436162e-03    1.0120000000e+05
    7.1599716321e-03    1.0120000000e+05
    7.1699991822e-03    1.0120000000e+05
    7.1797757410e-03    1.0120000000e+05
    7.1898060851e-03    1.0120000000e+05
    7.1998359635e-03    1.0120000000e+05
    7.2098649107e-03    1.0120000000e+05
    7.2198933922e-03    1.0120000000e+05
    7.2299237363e-03    1.0120000000e+05
    7.2399545461e-03    1.0120000000e+05
    7.2499848902e-03    1.0120000000e+05
    7.2597637773e-03    1.0120000000e+05
    7.2697945870e-03    1.0120000000e+05
    7.2798258625e-03    1.0120000000e+05
    7.2898562066e-03    1.0120000000e+05
    7.2998865508e-03    1.0120000000e+05
    7.3099173605e-03    1.0120000000e+05
    7.3199481703e-03    1.0120000000e+05
    7.3299785145e-03    1.0120000000e+05
    7.3397578672e-03    1.0120000000e+05
    7.3497882113e-03    1.0120000000e+05
    7.3598185554e-03    1.0120000000e+05
    7.3698484339e-03    1.0120000000e+05
    7.3798783123e-03    1.0120000000e+05
    7.3899081908e-03    1.0120000000e+05
    7.3999376036e-03    1.0120000000e+05
    7.4099665508e-03    1.0120000000e+05
    7.4199959636e-03    1.0120000000e+05
    7.4297739193e-03    1.0120000000e+05
    7.4398028664e-03    1.0120000000e+05
    7.4498313479e-03    1.0120000000e+05
    7.4598598294e-03    1.0120000000e+05
    7.4698878452e-03    1.0120000000e+05
    7.4799163267e-03    1.0120000000e+05
    7.4899443425e-03    1.0120000000e+05
    7.4999728240e-03    1.0120000000e+05
    7.5097503141e-03    1.0120000000e+05
    7.5197787955e-03    1.0120000000e+05
    7.5298068114e-03    1.0120000000e+05
    7.5398338959e-03    1.0120000000e+05
    7.5498614460e-03    1.0120000000e+05
    7.5598922558e-03    1.0120000000e+05
    7.5699258596e-03    1.0120000000e+05
    7.5799603947e-03    1.0120000000e+05
    7.5899949297e-03    1.0120000000e+05
    7.5997775421e-03    1.0120000000e+05
    7.6098106802e-03    1.0120000000e+05
    7.6198433526e-03    1.0120000000e+05
    7.6298760250e-03    1.0120000000e+05
    7.6399082318e-03    1.0120000000e+05
    7.6499409042e-03    1.0120000000e+05
    7.6599731110e-03    1.0120000000e+05
    7.6697552577e-03    1.0120000000e+05
    7.6797879301e-03    1.0120000000e+05
    7.6898206025e-03    1.0120000000e+05
    7.6998542063e-03    1.0120000000e+05
    7.7098901384e-03    1.0120000000e+05
    7.7199297957e-03    1.0120000000e+05
    7.7299675904e-03    1.0120000000e+05
    7.7397576533e-03    1.0120000000e+05
    7.7498033643e-03    1.0120000000e+05
    7.7598532662e-03    1.0120000000e+05
    7.7699054964e-03    1.0120000000e+05
    7.7799563296e-03    1.0120000000e+05
    7.7897598967e-03    1.0120000000e+05
    7.7998186462e-03    1.0120000000e+05
    7.8098811209e-03    1.0120000000e+05
    7.8199403360e-03    1.0120000000e+05
    7.8297499567e-03    1.0120000000e+05
    7.8398212790e-03    1.0120000000e+05
    7.8499084339e-03    1.0120000000e+05
    7.8597506508e-03    1.0120000000e+05
    7.8698471189e-03    1.0120000000e+05
    7.8799435869e-03    1.0120000000e+05
    7.8897876665e-03    1.0120000000e+05
    7.8998832032e-03    1.0120000000e+05
    7.9099787399e-03    1.0120000000e+05
    7.9198209569e-03    1.0120000000e+05
    7.9299174249e-03    1.0120000000e+05
    7.9397652298e-03    1.0120000000e+05
    7.9498654231e-03    1.0120000000e+05
    7.9599656165e-03    1.0120000000e+05
    7.9698124900e-03    1.0120000000e+05
    7.9799117520e-03    1.0120000000e+05
    7.9897595569e-03    1.0120000000e+05
    7.9998606816e-03    1.0120000000e+05
    8.0099618062e-03    1.0120000000e+05
    8.0198105425e-03    1.0120000000e+05
    8.0299135298e-03    1.0120000000e+05
    8.0397678539e-03    1.0120000000e+05
    8.0498773605e-03    1.0120000000e+05
    8.0599868670e-03    1.0120000000e+05
    8.0698477104e-03    1.0120000000e+05
    8.0799655989e-03    1.0120150000e+05
    8.0898422748e-03    1.4516045312e+05
    8.0999713391e-03    2.2160560938e+05
    8.1098526716e-03    2.2102942188e+05
    8.1199929118e-03    2.2037018750e+05
    8.1298900768e-03    2.1973357812e+05
    8.1397937611e-03    2.1910050000e+05
    8.1499535590e-03    2.1845492188e+05
    8.1598646939e-03    2.1782876562e+05
    8.1697851419e-03    2.1720560938e+05
    8.1799663603e-03    2.1656967188e+05
    8.1898961216e-03    2.1595304688e+05
    8.1998296082e-03    2.1533964062e+05
    8.2097696140e-03    2.1472931250e+05
    8.2199787721e-03    2.1410601562e+05
    8.2299364731e-03    2.1350156250e+05
    8.2398960367e-03    2.1290032812e+05
    8.2498583943e-03    2.1230226562e+05
    8.2598300651e-03    2.1170706250e+05
    8.2698091865e-03    2.1111473438e+05
    8.2797948271e-03    2.1052543750e+05
    8.2897804677e-03    2.0993935938e+05
    8.2997698337e-03    2.0935637500e+05
    8.3097685128e-03    2.0877604688e+05
    8.3197737113e-03    2.0819862500e+05
    8.3297844976e-03    2.0762400000e+05
    8.3397999406e-03    2.0705235938e+05
    8.3498181775e-03    2.0648364062e+05
    8.3598410711e-03    2.0591787500e+05
    8.3698760718e-03    2.0535462500e+05
    8.3799129352e-03    2.0479445312e+05
    8.3899553865e-03    2.0423701562e+05
    8.3997445181e-03    2.0369639062e+05
    8.4097972140e-03    2.0314417188e+05
    8.4198489785e-03    2.0259514062e+05
    8.4299137816e-03    2.0204892188e+05
    8.4399804473e-03    2.0150554688e+05
    8.4497928619e-03    2.0097810938e+05
    8.4598716348e-03    2.0043895312e+05
    8.4699513391e-03    1.9990342188e+05
    8.4797749296e-03    1.9938523438e+05
    8.4898695350e-03    1.9885557812e+05
    8.4999660030e-03    1.9832737500e+05
    8.5098072886e-03    1.9781479688e+05
    8.5199149325e-03    1.9729187500e+05
    8.5297636688e-03    1.9678614062e+05
    8.5398787633e-03    1.9626925000e+05
    8.5497424006e-03    1.9576698438e+05
    8.5598668084e-03    1.9525401562e+05
    8.5699893534e-03    1.9474470312e+05
    8.5798660293e-03    1.9425089062e+05
    8.5897408426e-03    1.9375907812e+05
    8.5998848081e-03    1.9325595312e+05
    8.6097773165e-03    1.9276807812e+05
    8.6199268699e-03    1.9227095312e+05
    8.6298175156e-03    1.9178932812e+05
    8.6399791762e-03    1.9129679688e+05
    8.6498828605e-03    1.9081889062e+05
    8.6597893387e-03    1.9034332812e+05
    8.6699696258e-03    1.8985757812e+05
    8.6798816919e-03    1.8938720312e+05
    8.6898021400e-03    1.8891882812e+05
    8.6999926716e-03    1.8844007812e+05
    8.7099224329e-03    1.8797604688e+05
    8.7198549882e-03    1.8751432812e+05
    8.7297968566e-03    1.8705457812e+05
    8.7399939075e-03    1.8658551562e+05
    8.7499376386e-03    1.8613045312e+05
    8.7598925456e-03    1.8567718750e+05
    8.7698455900e-03    1.8522642188e+05
    8.7798032910e-03    1.8477779688e+05
    8.7897703052e-03    1.8433107812e+05
    8.7999906391e-03    1.8387539062e+05
    8.8099576533e-03    1.8343332812e+05
    8.8199367747e-03    1.8299295312e+05
    8.8299131021e-03    1.8255506250e+05
    8.8398940861e-03    1.8211918750e+05
    8.8498843834e-03    1.8168507812e+05
    8.8598662987e-03    1.8125354688e+05
    8.8698528707e-03    1.8082389062e+05
    8.8798543438e-03    1.8039587500e+05
    8.8898511603e-03    1.7997039062e+05
    8.8998582214e-03    1.7954673438e+05
    8.9098718017e-03    1.7912492188e+05
    8.9198797941e-03    1.7870520312e+05
    8.9298896492e-03    1.7828742188e+05
    8.9399134740e-03    1.7787129688e+05
    8.9499279857e-03    1.7745792188e+05
    8.9599536732e-03    1.7704632812e+05
    8.9699886739e-03    1.7663614062e+05
    8.9797563851e-03    1.7623868750e+05
    8.9897960424e-03    1.7583231250e+05
    8.9998422191e-03    1.7542785938e+05
    9.0098828077e-03    1.7502570312e+05
    9.0199252591e-03    1.7462540625e+05
    9.0299816802e-03    1.7422657812e+05
    9.0397680178e-03    1.7384035938e+05
    9.0498290956e-03    1.7344525000e+05
    9.0598994866e-03    1.7305157812e+05
    9.0699652210e-03    1.7266014062e+05
    9.0797645971e-03    1.7228115625e+05
    9.0898387134e-03    1.7189359375e+05
    9.0999081731e-03    1.7150796875e+05
    9.1099841520e-03    1.7112379688e+05
    9.1198058799e-03    1.7075109375e+05
    9.1298948973e-03    1.7037037500e+05
    9.1399885714e-03    1.6999140625e+05
    9.1498233378e-03    1.6962392188e+05
    9.1599207371e-03    1.6924837500e+05
    9.1697527096e-03    1.6888448438e+05
    9.1798575595e-03    1.6851237500e+05
    9.1899633408e-03    1.6814212500e+05
    9.1998074204e-03    1.6778315625e+05
    9.2099253088e-03    1.6741595312e+05
    9.2197768390e-03    1.6706020312e+05
    9.2298919335e-03    1.6669667188e+05
    9.2397462577e-03    1.6634421875e+05
    9.2498678714e-03    1.6598393750e+05
    9.2599950731e-03    1.6562523438e+05
    9.2698670924e-03    1.6527728125e+05
    9.2797409743e-03    1.6493090625e+05
    9.2898830771e-03    1.6457681250e+05
    9.2997616157e-03    1.6423354688e+05
    9.3099037185e-03    1.6388282812e+05
    9.3197785318e-03    1.6354306250e+05
    9.3299299479e-03    1.6319550000e+05
    9.3398196623e-03    1.6285851562e+05
    9.3499822542e-03    1.6251378125e+05
    9.3598822132e-03    1.6217945312e+05
    9.3697821721e-03    1.6184671875e+05
    9.3799466267e-03    1.6150682812e+05
    9.3898484483e-03    1.6117751562e+05
    9.3997530639e-03    1.6084960938e+05
    9.4099324197e-03    1.6051410938e+05
    9.4198491424e-03    1.6018865625e+05
    9.4297686592e-03    1.5986462500e+05
    9.4399591908e-03    1.5953339062e+05
    9.4498815015e-03    1.5921242188e+05
    9.4598056749e-03    1.5889295312e+05
    9.4699999318e-03    1.5856642188e+05
    9.4799306244e-03    1.5824981250e+05
    9.4898659736e-03    1.5793440625e+05
    9.4998059794e-03    1.5762017188e+05
    9.5097487792e-03    1.5730740625e+05
    9.5199607313e-03    1.5698785938e+05
    9.5299053937e-03    1.5667817188e+05
    9.5398528501e-03    1.5636968750e+05
    9.5498040318e-03    1.5606240625e+05
    9.5597598702e-03    1.5575654688e+05
    9.5699904487e-03    1.5544379688e+05
    9.5799556002e-03    1.5514053125e+05
    9.5899244770e-03    1.5483846875e+05
    9.5998961478e-03    1.5453771875e+05
    9.6098668873e-03    1.5423839062e+05
    9.6198394895e-03    1.5394042188e+05
    9.6298139542e-03    1.5364375000e+05
    9.6397930756e-03    1.5334828125e+05
    9.6497749910e-03    1.5305409375e+05
    9.6597606316e-03    1.5276110938e+05
    9.6697509289e-03    1.5246937500e+05
    9.6797421575e-03    1.5217892188e+05
    9.6897352487e-03    1.5188971875e+05
    9.6997311339e-03    1.5160178125e+05
    9.7097298130e-03    1.5131507812e+05
    9.7197340801e-03    1.5102954688e+05
    9.7297430038e-03    1.5074520312e+05
    9.7397509962e-03    1.5046220312e+05
    9.7497627139e-03    1.5018040625e+05
    9.7597772256e-03    1.4989975000e+05
    9.7697898746e-03    1.4962029688e+05
    9.7798081115e-03    1.4934192188e+05
    9.7898300737e-03    1.4906470312e+05
    9.7998576239e-03    1.4878871875e+05
    9.8098888993e-03    1.4851389062e+05
    9.8199239001e-03    1.4824018750e+05
    9.8299579695e-03    1.4796764062e+05
    9.8399948329e-03    1.4769626562e+05
    9.8497625440e-03    1.4743332812e+05
    9.8598031327e-03    1.4716425000e+05
    9.8698502406e-03    1.4689617188e+05
    9.8799020052e-03    1.4662923438e+05
    9.8899565637e-03    1.4636353125e+05
    9.8997410387e-03    1.4610615625e+05
    9.9097983912e-03    1.4584265625e+05
    9.9198585376e-03    1.4558015625e+05
    9.9299224094e-03    1.4531876562e+05
    9.9399890751e-03    1.4505850000e+05
    9.9497875199e-03    1.4480626562e+05
    9.9598625675e-03    1.4454798438e+05
    9.9699404091e-03    1.4429084375e+05
    9.9797481671e-03    1.4404176562e+05
    9.9898297340e-03    1.4378678125e+05
    9.9999131635e-03    1.4353281250e+05
    1.0009728372e-02    1.4328667188e+05
    1.0019818321e-02    1.4303476562e+05
    1.0029912926e-02    1.4278390625e+05
    1.0039740242e-02    1.4254075000e+05
    1.0049842298e-02    1.4229187500e+05
    1.0059945285e-02    1.4204410938e+05
    1.0069778189e-02    1.4180401562e+05
    1.0079887696e-02    1.4155823438e+05
    1.0089726187e-02    1.4132003125e+05
    1.0099844076e-02    1.4107615625e+05
    1.0109964758e-02    1.4083323438e+05
    1.0119816288e-02    1.4059782812e+05
    1.0129944421e-02    1.4035685938e+05
    1.0139799677e-02    1.4012343750e+05
    1.0149929672e-02    1.3988453125e+05
    1.0159791447e-02    1.3965298438e+05
    1.0169931687e-02    1.3941587500e+05
    1.0179800913e-02    1.3918606250e+05
    1.0189948604e-02    1.3895076562e+05
    1.0199824348e-02    1.3872276562e+05
    1.0209978558e-02    1.3848943750e+05
    1.0219859891e-02    1.3826334375e+05
    1.0229744948e-02    1.3803814062e+05
    1.0239908472e-02    1.3780750000e+05
    1.0249803774e-02    1.3758389062e+05
    1.0259976611e-02    1.3735493750e+05
    1.0269874707e-02    1.3713315625e+05
    1.0279773735e-02    1.3691235938e+05
    1.0289948434e-02    1.3668646875e+05
    1.0299850255e-02    1.3646756250e+05
    1.0309755802e-02    1.3624940625e+05
    1.0319945402e-02    1.3602593750e+05
    1.0329870507e-02    1.3580921875e+05
    1.0339802131e-02    1.3559325000e+05
    1.0349736549e-02    1.3537806250e+05
    1.0359946638e-02    1.3515781250e+05
    1.0369880125e-02    1.3494450000e+05
    1.0379812680e-02    1.3473215625e+05
    1.0389744304e-02    1.3452067188e+05
    1.0399950668e-02    1.3430421875e+05
    1.0409880430e-02    1.3409453125e+05
    1.0419811122e-02    1.3388571875e+05
    1.0429741815e-02    1.3367778125e+05
    1.0439948179e-02    1.3346496875e+05
    1.0449877940e-02    1.3325881250e+05
    1.0459804907e-02    1.3305356250e+05
    1.0469731875e-02    1.3284917188e+05
    1.0479935445e-02    1.3263995312e+05
    1.0489866138e-02    1.3243715625e+05
    1.0499800555e-02    1.3223510938e+05
    1.0509737767e-02    1.3203381250e+05
    1.0519951582e-02    1.3182778125e+05
    1.0529888794e-02    1.3162818750e+05
    1.0539825074e-02    1.3142946875e+05
    1.0549759492e-02    1.3123160938e+05
    1.0559969582e-02    1.3102908594e+05
    1.0569902137e-02    1.3083283594e+05
    1.0579834692e-02    1.3063736719e+05
    1.0589767247e-02    1.3044272656e+05
    1.0599974543e-02    1.3024356250e+05
    1.0609908029e-02    1.3005057031e+05
    1.0619841516e-02    1.2985832031e+05
    1.0629775934e-02    1.2966683594e+05
    1.0639984161e-02    1.2947083594e+05
    1.0649915785e-02    1.2928091406e+05
    1.0659846477e-02    1.2909185156e+05
    1.0669776239e-02    1.2890362500e+05
    1.0679981671e-02    1.2871096875e+05
    1.0689911433e-02    1.2852422656e+05
    1.0699841194e-02    1.2833821094e+05
    1.0709771886e-02    1.2815293750e+05
    1.0719977319e-02    1.2796337500e+05
    1.0729906149e-02    1.2777971094e+05
    1.0739834048e-02    1.2759672656e+05
    1.0749760084e-02    1.2741452344e+05
    1.0759962723e-02    1.2722805469e+05
    1.0769889690e-02    1.2704735156e+05
    1.0779815726e-02    1.2686733594e+05
    1.0789742693e-02    1.2668803906e+05
    1.0799943469e-02    1.2650455469e+05
    1.0809868574e-02    1.2632677344e+05
    1.0819791816e-02    1.2614969531e+05
    1.0829990730e-02    1.2596842969e+05
    1.0839913972e-02    1.2579278906e+05
    1.0849837214e-02    1.2561785156e+05
    1.0859760456e-02    1.2544362500e+05
    1.0869958438e-02    1.2526527344e+05
    1.0879878886e-02    1.2509246094e+05
    1.0889799334e-02    1.2492034375e+05
    1.0899994522e-02    1.2474416406e+05
    1.0909914039e-02    1.2457344531e+05
    1.0919833556e-02    1.2440341406e+05
    1.0929754004e-02    1.2423408594e+05
    1.0939949192e-02    1.2406071094e+05
    1.0949868709e-02    1.2389267969e+05
    1.0959787294e-02    1.2372530469e+05
    1.0969980620e-02    1.2355396875e+05
    1.0979900137e-02    1.2338790625e+05
    1.0989821516e-02    1.2322246875e+05
    1.0999743827e-02    1.2305769531e+05
    1.1009944603e-02    1.2288897656e+05
    1.1019869708e-02    1.2272547656e+05
    1.1029793881e-02    1.2256260156e+05
    1.1039991863e-02    1.2239591406e+05
    1.1049913242e-02    1.2223441406e+05
    1.1059832759e-02    1.2207353906e+05
    1.1069752276e-02    1.2191322656e+05
    1.1079946533e-02    1.2174908594e+05
    1.1089866981e-02    1.2159008594e+05
    1.1099790223e-02    1.2143171094e+05
    1.1109992862e-02    1.2126949219e+05
    1.1119920760e-02    1.2111216406e+05
    1.1129847728e-02    1.2095546875e+05
    1.1139772832e-02    1.2079946094e+05
    1.1149973609e-02    1.2063978125e+05
    1.1159896851e-02    1.2048500000e+05
    1.1169819161e-02    1.2033080469e+05
    1.1179741472e-02    1.2017725000e+05
    1.1189938523e-02    1.2002006250e+05
    1.1199858971e-02    1.1986771094e+05
    1.1209779419e-02    1.1971593750e+05
    1.1219975539e-02    1.1956055469e+05
    1.1229894124e-02    1.1940996875e+05
    1.1239812709e-02    1.1925996094e+05
    1.1249731295e-02    1.1911053125e+05
    1.1259924620e-02    1.1895758594e+05
    1.1269843206e-02    1.1880935156e+05
    1.1279759929e-02    1.1866172656e+05
    1.1289953254e-02    1.1851059375e+05
    1.1299869977e-02    1.1836410156e+05
    1.1309785768e-02    1.1821815625e+05
    1.1319977231e-02    1.1806869531e+05
    1.1329892091e-02    1.1792381250e+05
    1.1339806952e-02    1.1777946094e+05
    1.1349995621e-02    1.1763164844e+05
    1.1359908618e-02    1.1748841406e+05
    1.1369821616e-02    1.1734584375e+05
    1.1379733682e-02    1.1720399219e+05
    1.1389921419e-02    1.1705887500e+05
    1.1399833485e-02    1.1691818750e+05
    1.1409747414e-02    1.1677790625e+05
    1.1419938877e-02    1.1663414844e+05
    1.1429857463e-02    1.1649469531e+05
    1.1439775117e-02    1.1635562500e+05
    1.1449969374e-02    1.1621300000e+05
    1.1459887028e-02    1.1607459375e+05
    1.1469813995e-02    1.1593658594e+05
    1.1479750276e-02    1.1579913281e+05
    1.1489965953e-02    1.1565871875e+05
    1.1499907821e-02    1.1552303906e+05
    1.1509850621e-02    1.1538828906e+05
    1.1519793421e-02    1.1525431250e+05
    1.1529745534e-02    1.1512075781e+05
    1.1539986357e-02    1.1498369531e+05
    1.1549982242e-02    1.1484996094e+05
    1.1559735052e-02    1.1471927344e+05
    1.1569795199e-02    1.1458414844e+05
    1.1579881422e-02    1.1444847656e+05
    1.1589993723e-02    1.1431256250e+05
    1.1599850841e-02    1.1418053125e+05
    1.1609737761e-02    1.1404896094e+05
    1.1619943194e-02    1.1391446094e+05
    1.1629904620e-02    1.1378478906e+05
    1.1639907956e-02    1.1365633594e+05
    1.1649949476e-02    1.1352905469e+05
    1.1659735814e-02    1.1340627344e+05
    1.1669837870e-02    1.1328025000e+05
    1.1679958552e-02    1.1315397656e+05
    1.1689803563e-02    1.1303041406e+05
    1.1699953116e-02    1.1290177344e+05
    1.1709827930e-02    1.1277522656e+05
    1.1719724163e-02    1.1264728906e+05
    1.1729937047e-02    1.1251466406e+05
    1.1739887297e-02    1.1238560156e+05
    1.1749872006e-02    1.1225689844e+05
    1.1759888381e-02    1.1212900781e+05
    1.1769933626e-02    1.1200241406e+05
    1.1779705994e-02    1.1188122656e+05
    1.1789791286e-02    1.1175847656e+05
    1.1799884960e-02    1.1163796875e+05
    1.1809982359e-02    1.1151946875e+05
    1.1819785461e-02    1.1140591406e+05
    1.1829891242e-02    1.1128972656e+05
    1.1839711107e-02    1.1117682031e+05
    1.1849846691e-02    1.1105935156e+05
    1.1859707534e-02    1.1094347656e+05
    1.1869894341e-02    1.1082182031e+05
    1.1879806407e-02    1.1070169531e+05
    1.1889740825e-02    1.1058010156e+05
    1.1899993755e-02    1.1045418750e+05
    1.1909957975e-02    1.1033208594e+05
    1.1919932440e-02    1.1021058594e+05
    1.1929926462e-02    1.1008986719e+05
    1.1939965189e-02    1.0996985156e+05
    1.1949785985e-02    1.0985372656e+05
    1.1959737167e-02    1.0973728906e+05
    1.1969855987e-02    1.0962019531e+05
    1.1979840696e-02    1.0950589844e+05
    1.1989687569e-02    1.0939444531e+05
    1.1999718845e-02    1.0928215625e+05
    1.2009934522e-02    1.0916899219e+05
    1.2019983493e-02    1.0905868750e+05
    1.2029844336e-02    1.0895116406e+05
    1.2039858848e-02    1.0884247656e+05
    1.2049659155e-02    1.0873634375e+05
    1.2059968896e-02    1.0862472656e+05
    1.2069674209e-02    1.0851949219e+05
    1.2079885229e-02    1.0840846875e+05
    1.2089844793e-02    1.0829988281e+05
    1.2099927291e-02    1.0818980469e+05
    1.2109737843e-02    1.0808271094e+05
    1.2119661085e-02    1.0797452344e+05
    1.2129697017e-02    1.0786534375e+05
    1.2139843777e-02    1.0775531250e+05
    1.2149689719e-02    1.0764892969e+05
    1.2159637176e-02    1.0754172656e+05
    1.2169686146e-02    1.0743350000e+05
    1.2179836631e-02    1.0732421094e+05
    1.2189657427e-02    1.0721853906e+05
    1.2199569494e-02    1.0711203125e+05
    1.2209571898e-02    1.0700472656e+05
    1.2219659984e-02    1.0689675781e+05
    1.2229828164e-02    1.0678831250e+05
    1.2239627540e-02    1.0668427344e+05
    1.2249950320e-02    1.0657533594e+05
    1.2259892188e-02    1.0647116406e+05
    1.2269891798e-02    1.0636721094e+05
    1.2279932387e-02    1.0626364844e+05
    1.2289545499e-02    1.0616516406e+05
    1.2299655937e-02    1.0606246094e+05
    1.2309796177e-02    1.0596009375e+05
    1.2319981121e-02    1.0585803906e+05
    1.2329740450e-02    1.0576074219e+05
    1.2339537963e-02    1.0566346094e+05
    1.2349849567e-02    1.0556152344e+05
    1.2359733693e-02    1.0546397656e+05
    1.2369647622e-02    1.0536630469e+05
    1.2379598804e-02    1.0526832031e+05
    1.2389598414e-02    1.0517006250e+05
    1.2399611063e-02    1.0507161719e+05
    1.2409678660e-02    1.0497275000e+05
    1.2419808656e-02    1.0487389844e+05
    1.2429934926e-02    1.0477521094e+05
    1.2439643033e-02    1.0468107031e+05
    1.2449872680e-02    1.0458199219e+05
    1.2459634803e-02    1.0448816406e+05
    1.2469935231e-02    1.0438925781e+05
    1.2479769997e-02    1.0429560156e+05
    1.2489659712e-02    1.0420157031e+05
    1.2499536388e-02    1.0410802344e+05
    1.2509988621e-02    1.0400935156e+05
    1.2519977055e-02    1.0391546094e+05
    1.2529969215e-02    1.0382160156e+05
    1.2539966963e-02    1.0372792969e+05
    1.2549599633e-02    1.0363846094e+05
    1.2559702620e-02    1.0354447656e+05
    1.2569778599e-02    1.0345096875e+05
    1.2579937465e-02    1.0335737500e+05
    1.2589609250e-02    1.0326836719e+05
    1.2599791400e-02    1.0317467969e+05
    1.2609514408e-02    1.0308625000e+05
    1.2619801797e-02    1.0299303125e+05
    1.2629582547e-02    1.0290412500e+05
    1.2639918365e-02    1.0281040625e+05
    1.2649789453e-02    1.0272184375e+05
    1.2659669854e-02    1.0263300000e+05
    1.2669630349e-02    1.0254421094e+05
    1.2679575011e-02    1.0245513281e+05
    1.2689562514e-02    1.0236641406e+05
    1.2699531391e-02    1.0227771094e+05
    1.2709991075e-02    1.0218482031e+05
    1.2719999999e-02    1.0209639844e+05
    1.2729541399e-02    1.0201224219e+05
    1.2739632279e-02    1.0192352344e+05
    1.2749727815e-02    1.0183496094e+05
    1.2759862468e-02    1.0174585156e+05
    1.2769484892e-02    1.0166196875e+05
    1.2779625133e-02    1.0157339844e+05
    1.2789862230e-02    1.0148461719e+05
    1.2799486518e-02    1.0140108594e+05
    1.2809772044e-02    1.0131253125e+05
    1.2819432653e-02    1.0122955469e+05
    1.2829750776e-02    1.0114184375e+05
    1.2839472853e-02    1.0105950781e+05
    1.2849797495e-02    1.0097278906e+05
    1.2859572656e-02    1.0089139844e+05
    1.2869898230e-02    1.0080593750e+05
    1.2879630551e-02    1.0072621094e+05
    1.2889852747e-02    1.0064297656e+05
    1.2899970636e-02    1.0056118750e+05
    1.2909876183e-02    1.0048152344e+05
    1.2919543311e-02    1.0040403906e+05
    1.2929907069e-02    1.0032114844e+05
    1.2939931825e-02    1.0024096094e+05
    1.2949631549e-02    1.0016324219e+05
    1.2959893793e-02    1.0008086719e+05
    1.2969790027e-02    1.0000128125e+05
    1.2979738414e-02    9.9921156250e+04
    1.2989702635e-02    9.9840820312e+04
    1.2999643572e-02    9.9760726562e+04
    1.3009881601e-02    9.9678476562e+04
    1.3019984588e-02    9.9597625000e+04
    1.3029909693e-02    9.9518554688e+04
    1.3039916754e-02    9.9439289062e+04
    1.3049901463e-02    9.9360656250e+04
    1.3059752062e-02    9.9283468750e+04
    1.3069824316e-02    9.9204773438e+04
    1.3079847209e-02    9.9126593750e+04
    1.3089884073e-02    9.9048335938e+04
    1.3099893928e-02    9.8970289062e+04
    1.3109958731e-02    9.8891835938e+04
    1.3119919226e-02    9.8814929688e+04
    1.3129883446e-02    9.8737960938e+04
    1.3139909133e-02    9.8660750000e+04
    1.3149943203e-02    9.8583835938e+04
    1.3159954920e-02    9.8507664062e+04
    1.3169934042e-02    9.8432523438e+04
    1.3179904781e-02    9.8358210938e+04
    1.3189960271e-02    9.8283992188e+04
    1.3199913315e-02    9.8211187500e+04
    1.3209943660e-02    9.8138570312e+04
    1.3219796121e-02    9.8067898438e+04
    1.3229867443e-02    9.7996117188e+04
    1.3239916414e-02    9.7924664062e+04
    1.3249918818e-02    9.7853398438e+04
    1.3259819709e-02    9.7782476562e+04
    1.3269820251e-02    9.7710335938e+04
    1.3279903680e-02    9.7636992188e+04
    1.3289851137e-02    9.7564148438e+04
    1.3299842365e-02    9.7490429688e+04
    1.3309899718e-02    9.7415992188e+04
    1.3319779187e-02    9.7343085938e+04
    1.3329928741e-02    9.7268539062e+04
    1.3339891098e-02    9.7195976562e+04
    1.3349893503e-02    9.7124000000e+04
    1.3359925710e-02    9.7052726562e+04
    1.3369996101e-02    9.6982226562e+04
    1.3379865326e-02    9.6914039062e+04
    1.3389986940e-02    9.6844992188e+04
    1.3399920426e-02    9.6777960938e+04
    1.3409853913e-02    9.6711398438e+04
    1.3419841416e-02    9.6644757812e+04
    1.3429820538e-02    9.6578132812e+04
    1.3439854607e-02    9.6510945312e+04
    1.3449872844e-02    9.6443429688e+04
    1.3459944166e-02    9.6375101562e+04
    1.3469779864e-02    9.6307898438e+04
    1.3479870744e-02    9.6238570312e+04
    1.3489997946e-02    9.6168820312e+04
    1.3499884866e-02    9.6100835938e+04
    1.3509810902e-02    9.6032867188e+04
    1.3519982807e-02    9.5963625000e+04
    1.3529952615e-02    9.5896195312e+04
    1.3539920561e-02    9.5829289062e+04
    1.3549927622e-02    9.5762804688e+04
    1.3559949584e-02    9.5697000000e+04
    1.3569978997e-02    9.5631976562e+04
    1.3579794206e-02    9.5569101562e+04
    1.3589870185e-02    9.5505210938e+04
    1.3599954545e-02    9.5441750000e+04
    1.3609812595e-02    9.5380023438e+04
    1.3619941659e-02    9.5316687500e+04
    1.3629829511e-02    9.5254632812e+04
    1.3639974408e-02    9.5190375000e+04
    1.3649904169e-02    9.5126757812e+04
    1.3659839518e-02    9.5062460938e+04
    1.3669776730e-02    9.4997664062e+04
    1.3679988682e-02    9.4930835938e+04
    1.3689966872e-02    9.4865695312e+04
    1.3699943200e-02    9.4801195312e+04
    1.3709942810e-02    9.4737523438e+04
    1.3719961047e-02    9.4674875000e+04
    1.3729974627e-02    9.4613500000e+04
    1.3739758171e-02    9.4554625000e+04
    1.3749815524e-02    9.4494976562e+04
    1.3759859838e-02    9.4435968750e+04
    1.3769920915e-02    9.4377023438e+04
    1.3779763132e-02    9.4319031250e+04
    1.3789852150e-02    9.4258851562e+04
    1.3799931854e-02    9.4197718750e+04
    1.3809802011e-02    9.4136914062e+04
    1.3819922693e-02    9.4073960938e+04
    1.3829783536e-02    9.4012445312e+04
    1.3839911669e-02    9.3949562500e+04
    1.3849816285e-02    9.3888710938e+04
    1.3859963976e-02    9.3827289062e+04
    1.3869878836e-02    9.3768460938e+04
    1.3879811391e-02    9.3710710938e+04
    1.3889988884e-02    9.3652648438e+04
    1.3899927028e-02    9.3596812500e+04
    1.3909888454e-02    9.3541250000e+04
    1.3919853605e-02    9.3485648438e+04
    1.3929802924e-02    9.3429718750e+04
    1.3939775527e-02    9.3372906250e+04
    1.3949773274e-02    9.3315062500e+04
    1.3959762640e-02    9.3256468750e+04
    1.3969752938e-02    9.3197375000e+04
    1.3979760930e-02    9.3138023438e+04
    1.3989779167e-02    9.3078882812e+04
    1.3999804854e-02    9.3020531250e+04
    1.4009836130e-02    9.2963343750e+04
    1.4019874856e-02    9.2907445312e+04
    1.4029917307e-02    9.2852804688e+04
    1.4039979316e-02    9.2799070312e+04
    1.4049796388e-02    9.2747164062e+04
    1.4059860259e-02    9.2693929688e+04
    1.4069928788e-02    9.2640085938e+04
    1.4079767279e-02    9.2586554688e+04
    1.4089863747e-02    9.2530476562e+04
    1.4099955559e-02    9.2473460938e+04
    1.4109797776e-02    9.2417398438e+04
    1.4119911008e-02    9.2359968750e+04
    1.4129780233e-02    9.2304679688e+04
    1.4139905572e-02    9.2249085938e+04
    1.4149779454e-02    9.2196179688e+04
    1.4159911312e-02    9.2143281250e+04
    1.4169803821e-02    9.2092789062e+04
    1.4179959893e-02    9.2041648438e+04
    1.4189857990e-02    9.1991750000e+04
    1.4199757949e-02    9.1941218750e+04
    1.4209921472e-02    9.1888273438e+04
    1.4219848439e-02    9.1835460938e+04
    1.4229772612e-02    9.1781789062e+04
    1.4239948243e-02    9.1726289062e+04
    1.4249878936e-02    9.1672320312e+04
    1.4259820804e-02    9.1619101562e+04
    1.4269771054e-02    9.1567125000e+04
    1.4279970899e-02    9.1515335938e+04
    1.4289921150e-02    9.1466093750e+04
    1.4299875125e-02    9.1417773438e+04
    1.4309844933e-02    9.1369718750e+04
    1.4319813810e-02    9.1321367188e+04
    1.4329779893e-02    9.1272210938e+04
    1.4339752495e-02    9.1221945312e+04
    1.4349995181e-02    9.1169242188e+04
    1.4359985478e-02    9.1117101562e+04
    1.4369973913e-02    9.1064906250e+04
    1.4379960485e-02    9.1013375000e+04
    1.4389958233e-02    9.0963007812e+04
    1.4399963431e-02    9.0914031250e+04
    1.4409970492e-02    9.0866398438e+04
    1.4419974759e-02    9.0819726562e+04
    1.4429980889e-02    9.0773414062e+04
    1.4439995401e-02    9.0726851562e+04
    1.4449764043e-02    9.0680687500e+04
    1.4459791593e-02    9.0632195312e+04
    1.4469820075e-02    9.0582632812e+04
    1.4479851350e-02    9.0532414062e+04
    1.4489883557e-02    9.0482218750e+04
    1.4499914832e-02    9.0432710938e+04
    1.4509943314e-02    9.0384445312e+04
    1.4519976452e-02    9.0337625000e+04
    1.4529754408e-02    9.0293218750e+04
    1.4539795928e-02    9.0248406250e+04
    1.4549839310e-02    9.0203718750e+04
    1.4559883624e-02    9.0158539062e+04
    1.4569929801e-02    9.0112460938e+04
    1.4579975046e-02    9.0065335938e+04
    1.4589763246e-02    9.0018585938e+04
    1.4599808492e-02    8.9970257812e+04
    1.4609853737e-02    8.9922343750e+04
    1.4619898051e-02    8.9875468750e+04
    1.4629942365e-02    8.9829898438e+04
    1.4639986679e-02    8.9785539062e+04
    1.4649773948e-02    8.9743226562e+04
    1.4659819193e-02    8.9700226562e+04
    1.4669864438e-02    8.9656960938e+04
    1.4679909684e-02    8.9612812500e+04
    1.4689955860e-02    8.9567632812e+04
    1.4699744992e-02    8.9522843750e+04
    1.4709793031e-02    8.9476601562e+04
    1.4719842002e-02    8.9430648438e+04
    1.4729891904e-02    8.9385476562e+04
    1.4739941806e-02    8.9341523438e+04
    1.4749991708e-02    8.9298773438e+04
    1.4759784564e-02    8.9257976562e+04
    1.4769836329e-02    8.9216382812e+04
    1.4779887162e-02    8.9174476562e+04
    1.4789938927e-02    8.9131835938e+04
    1.4799990691e-02    8.9088304688e+04
    1.4809785411e-02    8.9045226562e+04
    1.4819839038e-02    8.9000812500e+04
    1.4829891734e-02    8.8956804688e+04
    1.4839946292e-02    8.8913710938e+04
    1.4849742875e-02    8.8872789062e+04
    1.4859798364e-02    8.8831773438e+04
    1.4869853854e-02    8.8791343750e+04
    1.4879909344e-02    8.8751039062e+04
    1.4889965765e-02    8.8710335938e+04
    1.4899764210e-02    8.8669945312e+04
    1.4909821562e-02    8.8627789062e+04
    1.4919878915e-02    8.8585242188e+04
    1.4929936267e-02    8.8542789062e+04
    1.4939993620e-02    8.8500898438e+04
    1.4949793927e-02    8.8460937500e+04
    1.4959852211e-02    8.8420914062e+04
    1.4969910495e-02    8.8381664062e+04
    1.4979969710e-02    8.8342726562e+04
    1.4989770949e-02    8.8304500000e+04
    1.4999832958e-02    8.8264656250e+04
    1.5009895898e-02    8.8224242188e+04
    1.5019962564e-02    8.8183476562e+04
    1.5029774979e-02    8.8143726562e+04
    1.5039849095e-02    8.8103226562e+04
    1.5049922280e-02    8.8063460938e+04
    1.5059993602e-02    8.8024601562e+04
    1.5069806948e-02    8.7987414062e+04
    1.5079876408e-02    8.7949492188e+04
    1.5089945868e-02    8.7911460938e+04
    1.5099757351e-02    8.7874085938e+04
    1.5109827742e-02    8.7835304688e+04
    1.5119901858e-02    8.7796164062e+04
    1.5129978769e-02    8.7756945312e+04
    1.5139796771e-02    8.7719023438e+04
    1.5149873681e-02    8.7680750000e+04
    1.5159949660e-02    8.7643218750e+04
    1.5169767663e-02    8.7607148438e+04
    1.5179843642e-02    8.7570343750e+04
    1.5189919621e-02    8.7533539062e+04
    1.5199996531e-02    8.7496437500e+04
    1.5209814534e-02    8.7459843750e+04
    1.5219891444e-02    8.7421976562e+04
    1.5229969285e-02    8.7384164062e+04
    1.5239788219e-02    8.7347757812e+04
    1.5249866061e-02    8.7311007812e+04
    1.5259942971e-02    8.7274804688e+04
    1.5269762836e-02    8.7239859375e+04
    1.5279839747e-02    8.7204140625e+04
    1.5289916657e-02    8.7168382812e+04
    1.5299994498e-02    8.7132398438e+04
    1.5309814364e-02    8.7097101562e+04
    1.5319893137e-02    8.7060828125e+04
    1.5329970978e-02    8.7024765625e+04
    1.5339790843e-02    8.6989992188e+04
    1.5349868685e-02    8.6954734375e+04
    1.5359946527e-02    8.6919890625e+04
    1.5369766392e-02    8.6886226562e+04
    1.5379844233e-02    8.6851710938e+04
    1.5389923006e-02    8.6817046875e+04
    1.5399743803e-02    8.6783078125e+04
    1.5409822576e-02    8.6748140625e+04
    1.5419901349e-02    8.6713296875e+04
    1.5429979190e-02    8.6678640625e+04
    1.5439799055e-02    8.6645187500e+04
    1.5449877828e-02    8.6611281250e+04
    1.5459957533e-02    8.6577710938e+04
    1.5469777398e-02    8.6545093750e+04
    1.5479856171e-02    8.6511531250e+04
    1.5489934944e-02    8.6477882812e+04
    1.5499754809e-02    8.6445101562e+04
    1.5509834513e-02    8.6411562500e+04
    1.5519913286e-02    8.6378195312e+04
    1.5529992990e-02    8.6345085938e+04
    1.5539813787e-02    8.6313125000e+04
    1.5549893491e-02    8.6280593750e+04
    1.5559973195e-02    8.6248164062e+04
    1.5569793992e-02    8.6216500000e+04
    1.5579873696e-02    8.6184015625e+04
    1.5589953400e-02    8.6151664062e+04
    1.5599775128e-02    8.6120257812e+04
    1.5609854832e-02    8.6088070312e+04
    1.5619934537e-02    8.6055984375e+04
    1.5629755333e-02    8.6024953125e+04
    1.5639835969e-02    8.5993375000e+04
    1.5649914742e-02    8.5961992188e+04
    1.5659995377e-02    8.5930679688e+04
    1.5669817105e-02    8.5900179688e+04
    1.5679895878e-02    8.5868898438e+04
    1.5689976513e-02    8.5837664062e+04
    1.5699798241e-02    8.5807304688e+04
    1.5709878877e-02    8.5776367188e+04
    1.5719959512e-02    8.5745750000e+04
    1.5729781240e-02    8.5716125000e+04
    1.5739860013e-02    8.5685710938e+04
    1.5749940649e-02    8.5655257812e+04
    1.5759762377e-02    8.5625710938e+04
    1.5769843012e-02    8.5595593750e+04
    1.5779923648e-02    8.5565617188e+04
    1.5789745376e-02    8.5536445312e+04
    1.5799826011e-02    8.5506546875e+04
    1.5809906647e-02    8.5476804688e+04
    1.5819987282e-02    8.5447328125e+04
    1.5829810873e-02    8.5418804688e+04
    1.5839891508e-02    8.5389578125e+04
    1.5849972144e-02    8.5360343750e+04
    1.5859793872e-02    8.5331937500e+04
    1.5869874507e-02    8.5302914062e+04
    1.5879955143e-02    8.5274039062e+04
    1.5889778733e-02    8.5246093750e+04
    1.5899859369e-02    8.5217570312e+04
    1.5909941867e-02    8.5189109375e+04
    1.5919763595e-02    8.5161390625e+04
    1.5929846093e-02    8.5133046875e+04
    1.5939926729e-02    8.5104914062e+04
    1.5949750319e-02    8.5077632812e+04
    1.5959830955e-02    8.5049664062e+04
    1.5969913453e-02    8.5021718750e+04
    1.5979995951e-02    8.4993953125e+04
    1.5989817679e-02    8.4967093750e+04
    1.5999900177e-02    8.4939593750e+04
    1.6009982675e-02    8.4912078125e+04
    1.6019806266e-02    8.4885351562e+04
    1.6029888764e-02    8.4858109375e+04
    1.6039971262e-02    8.4831039062e+04
    1.6049794853e-02    8.4804742188e+04
    1.6059877351e-02    8.4777812500e+04
    1.6069959849e-02    8.4750984375e+04
    1.6079783440e-02    8.4724984375e+04
    1.6089867800e-02    8.4698445312e+04
    1.6099950299e-02    8.4672007812e+04
    1.6109775752e-02    8.4646367188e+04
    1.6119860113e-02    8.4620203125e+04
    1.6129944474e-02    8.4594171875e+04
    1.6139769927e-02    8.4568875000e+04
    1.6149854288e-02    8.4543000000e+04
    1.6159936786e-02    8.4517265625e+04
    1.6169762239e-02    8.4492328125e+04
    1.6179846600e-02    8.4466804688e+04
    1.6189930961e-02    8.4441328125e+04
    1.6199756414e-02    8.4416578125e+04
    1.6209842637e-02    8.4391328125e+04
    1.6219926998e-02    8.4366226562e+04
    1.6229754314e-02    8.4341828125e+04
    1.6239838675e-02    8.4316820312e+04
    1.6249924898e-02    8.4291960938e+04
    1.6259750351e-02    8.4267898438e+04
    1.6269836575e-02    8.4243273438e+04
    1.6279920936e-02    8.4218703125e+04
    1.6289748251e-02    8.4194898438e+04
    1.6299834475e-02    8.4170593750e+04
    1.6309920698e-02    8.4146359375e+04
    1.6319749877e-02    8.4122812500e+04
    1.6329836100e-02    8.4098765625e+04
    1.6339924186e-02    8.4074851562e+04
    1.6349751502e-02    8.4051664062e+04
    1.6359839588e-02    8.4027976562e+04
    1.6369925812e-02    8.4004406250e+04
    1.6379754990e-02    8.3981554688e+04
    1.6389841214e-02    8.3958218750e+04
    1.6399929300e-02    8.3934960938e+04
    1.6409758478e-02    8.3912359375e+04
    1.6419846565e-02    8.3889281250e+04
    1.6429934651e-02    8.3866351562e+04
    1.6439763829e-02    8.3844078125e+04
    1.6449851915e-02    8.3821265625e+04
    1.6459940001e-02    8.3798546875e+04
    1.6469771042e-02    8.3776523438e+04
    1.6479859129e-02    8.3754000000e+04
    1.6489949077e-02    8.3731539062e+04
    1.6499778256e-02    8.3709765625e+04
    1.6509868205e-02    8.3687578125e+04
    1.6519956291e-02    8.3665531250e+04
    1.6529787332e-02    8.3644125000e+04
    1.6539877281e-02    8.3622195312e+04
    1.6549967229e-02    8.3600398438e+04
    1.6559798270e-02    8.3579343750e+04
    1.6569888219e-02    8.3557843750e+04
    1.6579980031e-02    8.3536351562e+04
    1.6589811072e-02    8.3515445312e+04
    1.6599901021e-02    8.3494117188e+04
    1.6609992832e-02    8.3472945312e+04
    1.6619823873e-02    8.3452406250e+04
    1.6629915684e-02    8.3431390625e+04
    1.6639746726e-02    8.3411000000e+04
    1.6649838537e-02    8.3390195312e+04
    1.6659930348e-02    8.3369484375e+04
    1.6669763252e-02    8.3349375000e+04
    1.6679855064e-02    8.3328851562e+04
    1.6689946875e-02    8.3308468750e+04
    1.6699779779e-02    8.3288679688e+04
    1.6709871590e-02    8.3268406250e+04
    1.6719963402e-02    8.3248226562e+04
    1.6729798168e-02    8.3228710938e+04
    1.6739889979e-02    8.3208796875e+04
    1.6749981791e-02    8.3188976562e+04
    1.6759816557e-02    8.3169726562e+04
    1.6769910231e-02    8.3150015625e+04
    1.6779743135e-02    8.3130898438e+04
    1.6789836809e-02    8.3111421875e+04
    1.6799930483e-02    8.3092070312e+04
    1.6809765249e-02    8.3073289062e+04
    1.6819858924e-02    8.3054085938e+04
    1.6829952598e-02    8.3034992188e+04
    1.6839787364e-02    8.3016484375e+04
    1.6849882901e-02    8.2997562500e+04
    1.6859976575e-02    8.2978742188e+04
    1.6869811341e-02    8.2960484375e+04
    1.6879906878e-02    8.2941835938e+04
    1.6889741644e-02    8.2923796875e+04
    1.6899837181e-02    8.2905406250e+04
    1.6909932718e-02    8.2887101562e+04
    1.6919767484e-02    8.2869312500e+04
    1.6929863021e-02    8.2851109375e+04
    1.6939958557e-02    8.2833015625e+04
    1.6949795187e-02    8.2815539062e+04
    1.6959890723e-02    8.2797703125e+04
    1.6969986260e-02    8.2779875000e+04
    1.6979824752e-02    8.2762539062e+04
    1.6989920288e-02    8.2744906250e+04
    1.6999756917e-02    8.2727875000e+04
    1.7009854317e-02    8.2710445312e+04
    1.7019949853e-02    8.2693039062e+04
    1.7029788345e-02    8.2676203125e+04
    1.7039883882e-02    8.2659046875e+04
    1.7049981281e-02    8.2641976562e+04
    1.7059819773e-02    8.2625406250e+04
    1.7069917172e-02    8.2608468750e+04
    1.7079753801e-02    8.2592078125e+04
    1.7089851201e-02    8.2575406250e+04
    1.7099948600e-02    8.2558835938e+04
    1.7109787092e-02    8.2542726562e+04
    1.7119886354e-02    8.2526242188e+04
    1.7129983753e-02    8.2509867188e+04
    1.7139822245e-02    8.2494023438e+04
    1.7149919644e-02    8.2477851562e+04
    1.7159759998e-02    8.2462187500e+04
    1.7169857398e-02    8.2446210938e+04
    1.7179956660e-02    8.2430304688e+04
    1.7189795151e-02    8.2414875000e+04
    1.7199894413e-02    8.2399125000e+04
    1.7209991813e-02    8.2383492188e+04
    1.7219832167e-02    8.2368382812e+04
    1.7229931429e-02    8.2352937500e+04
    1.7239769921e-02    8.2337945312e+04
    1.7249869183e-02    8.2322625000e+04
    1.7259968445e-02    8.2307406250e+04
    1.7269808799e-02    8.2292671875e+04
    1.7279908061e-02    8.2277648438e+04
    1.7289748415e-02    8.2263093750e+04
    1.7299849540e-02    8.2248257812e+04
    1.7309948802e-02    8.2233515625e+04
    1.7319789156e-02    8.2219234375e+04
    1.7329888418e-02    8.2204625000e+04
    1.7339989543e-02    8.2190093750e+04
    1.7349829897e-02    8.2176039062e+04
    1.7359931022e-02    8.2161710938e+04
    1.7369771376e-02    8.2147812500e+04
    1.7379872501e-02    8.2133640625e+04
    1.7389971763e-02    8.2119570312e+04
    1.7399813980e-02    8.2105937500e+04
    1.7409915105e-02    8.2091992188e+04
    1.7419757321e-02    8.2078500000e+04
    1.7429856583e-02    8.2064773438e+04
    1.7439957708e-02    8.2051156250e+04
    1.7449799925e-02    8.2037968750e+04
    1.7459901050e-02    8.2024492188e+04
    1.7469743267e-02    8.2011414062e+04
    1.7479844391e-02    8.1998109375e+04
    1.7489947379e-02    8.1984945312e+04
    1.7499789596e-02    8.1972171875e+04
    1.7509890720e-02    8.1959078125e+04
    1.7519991845e-02    8.1946093750e+04
    1.7529834062e-02    8.1933601562e+04
    1.7539937049e-02    8.1920843750e+04
    1.7549779266e-02    8.1908429688e+04
    1.7559882253e-02    8.1895773438e+04
    1.7569983378e-02    8.1883257812e+04
    1.7579827458e-02    8.1871179688e+04
    1.7589928582e-02    8.1858828125e+04
    1.7599772662e-02    8.1846828125e+04
    1.7609875649e-02    8.1834617188e+04
    1.7619976774e-02    8.1822554688e+04
    1.7629820853e-02    8.1810867188e+04
    1.7639923841e-02    8.1798882812e+04
    1.7649767920e-02    8.1787281250e+04
    1.7659870908e-02    8.1775531250e+04
    1.7669973895e-02    8.1763890625e+04
    1.7679816112e-02    8.1752601562e+04
    1.7689920962e-02    8.1741078125e+04
    1.7699765041e-02    8.1729976562e+04
    1.7709868029e-02    8.1718703125e+04
    1.7719971016e-02    8.1707492188e+04
    1.7729815096e-02    8.1696601562e+04
    1.7739918083e-02    8.1685492188e+04
    1.7749764025e-02    8.1674796875e+04
    1.7759867013e-02    8.1663929688e+04
    1.7769970000e-02    8.1653125000e+04
    1.7779815942e-02    8.1642648438e+04
    1.7789918929e-02    8.1632000000e+04
    1.7799763009e-02    8.1621703125e+04
    1.7809867859e-02    8.1611187500e+04
    1.7819970846e-02    8.1600781250e+04
    1.7829816788e-02    8.1590773438e+04
    1.7839921638e-02    8.1580593750e+04
    1.7849765718e-02    8.1570679688e+04
    1.7859870568e-02    8.1560507812e+04
    1.7869975418e-02    8.1550445312e+04
    1.7879819497e-02    8.1540812500e+04
    1.7889924347e-02    8.1531007812e+04
    1.7899770290e-02    8.1521468750e+04
    1.7909875140e-02    8.1511773438e+04
    1.7919979990e-02    8.1502257812e+04
    1.7929824069e-02    8.1493062500e+04
    1.7939928919e-02    8.1483609375e+04
    1.7949774861e-02    8.1474429688e+04
    1.7959879711e-02    8.1465140625e+04
    1.7969984561e-02    8.1456000000e+04
    1.7979830503e-02    8.1447148438e+04
    1.7989935353e-02    8.1438101562e+04
    1.7999781296e-02    8.1429375000e+04
    1.8009886146e-02    8.1420554688e+04
    1.8019990996e-02    8.1411812500e+04
    1.8029838800e-02    8.1403296875e+04
    1.8039943650e-02    8.1394640625e+04
    1.8049789593e-02    8.1386398438e+04
    1.8059894443e-02    8.1378015625e+04
    1.8069740385e-02    8.1369789062e+04
    1.8079847097e-02    8.1361414062e+04
    1.8089951947e-02    8.1353289062e+04
    1.8099797890e-02    8.1345539062e+04
    1.8109902740e-02    8.1337570312e+04
    1.8119750544e-02    8.1329718750e+04
    1.8129855394e-02    8.1321664062e+04
    1.8139960244e-02    8.1313828125e+04
    1.8149808049e-02    8.1306453125e+04
    1.8159912899e-02    8.1298953125e+04
    1.8169760704e-02    8.1291523438e+04
    1.8179865554e-02    8.1283875000e+04
    1.8189972267e-02    8.1276460938e+04
    1.8199818209e-02    8.1269453125e+04
    1.8209924921e-02    8.1262281250e+04
    1.8219770864e-02    8.1255250000e+04
    1.8229875714e-02    8.1248117188e+04
    1.8239982426e-02    8.1241187500e+04
    1.8249830231e-02    8.1234562500e+04
    1.8259935081e-02    8.1227765625e+04
    1.8269782886e-02    8.1221148438e+04
    1.8279887736e-02    8.1214453125e+04
    1.8289994448e-02    8.1207906250e+04
    1.8299840391e-02    8.1201625000e+04
    1.8309947103e-02    8.1195250000e+04
    1.8319793046e-02    8.1189117188e+04
    1.8329899758e-02    8.1182835938e+04
    1.8339747563e-02    8.1176757812e+04
    1.8349852413e-02    8.1170671875e+04
    1.8359959126e-02    8.1164765625e+04
    1.8369806930e-02    8.1159062500e+04
    1.8379911780e-02    8.1153164062e+04
    1.8389759585e-02    8.1147476562e+04
    1.8399866298e-02    8.1141773438e+04
    1.8409971148e-02    8.1136187500e+04
    1.8419818953e-02    8.1130781250e+04
    1.8429925665e-02    8.1125289062e+04
    1.8439771608e-02    8.1120062500e+04
    1.8449878320e-02    8.1114828125e+04
    1.8459985033e-02    8.1109656250e+04
    1.8469830975e-02    8.1104632812e+04
    1.8479937688e-02    8.1099562500e+04
    1.8489783630e-02    8.1094742188e+04
    1.8499890342e-02    8.1089914062e+04
    1.8509997055e-02    8.1085164062e+04
    1.8519844860e-02    8.1080632812e+04
    1.8529949710e-02    8.1076093750e+04
    1.8539797515e-02    8.1071734375e+04
    1.8549904227e-02    8.1067210938e+04
    1.8559750170e-02    8.1062781250e+04
    1.8569856882e-02    8.1058421875e+04
    1.8579963595e-02    8.1054359375e+04
    1.8589809537e-02    8.1050476562e+04
    1.8599916250e-02    8.1046382812e+04
    1.8609764054e-02    8.1042382812e+04
    1.8619870767e-02    8.1038484375e+04
    1.8629975617e-02    8.1034734375e+04
    1.8639823422e-02    8.1031101562e+04
    1.8649930134e-02    8.1027406250e+04
    1.8659776077e-02    8.1023960938e+04
    1.8669882789e-02    8.1020617188e+04
    1.8679989502e-02    8.1017343750e+04
    1.8689835444e-02    8.1014140625e+04
    1.8699942157e-02    8.1010867188e+04
    1.8709789962e-02    8.1007750000e+04
    1.8719894812e-02    8.1004640625e+04
    1.8729742616e-02    8.1001718750e+04
    1.8739849329e-02    8.0998890625e+04
    1.8749954179e-02    8.0996210938e+04
    1.8759801984e-02    8.0993578125e+04
    1.8769908696e-02    8.0990820312e+04
    1.8779754639e-02    8.0988257812e+04
    1.8789861351e-02    8.0985867188e+04
    1.8799968064e-02    8.0983570312e+04
    1.8809814006e-02    8.0981304688e+04
    1.8819920719e-02    8.0979023438e+04
    1.8829766661e-02    8.0976953125e+04
    1.8839873374e-02    8.0974992188e+04
    1.8849980086e-02    8.0973085938e+04
    1.8859826028e-02    8.0971226562e+04
    1.8869932741e-02    8.0969382812e+04
    1.8879778683e-02    8.0967757812e+04
    1.8889885396e-02    8.0966234375e+04
    1.8899992108e-02    8.0964710938e+04
    1.8909838051e-02    8.0963242188e+04
    1.8919944763e-02    8.0961843750e+04
    1.8929790705e-02    8.0960609375e+04
    1.8939897418e-02    8.0959406250e+04
    1.8949743360e-02    8.0958296875e+04
    1.8959850073e-02    8.0957273438e+04
    1.8969956785e-02    8.0956359375e+04
    1.8979802728e-02    8.0955492188e+04
    1.8989909440e-02    8.0954664062e+04
    1.8999755383e-02    8.0954039062e+04
    1.9009862095e-02    8.0953578125e+04
    1.9019966945e-02    8.0953093750e+04
    1.9029814750e-02    8.0952554688e+04
    1.9039919600e-02    8.0952093750e+04
    1.9049767405e-02    8.0951882812e+04
    1.9059874117e-02    8.0951812500e+04
    1.9069978967e-02    8.0951773438e+04
    1.9079826772e-02    8.0951765625e+04
    1.9089933485e-02    8.0951835938e+04
    1.9099781290e-02    8.0951976562e+04
    1.9109888002e-02    8.0952203125e+04
    1.9119994715e-02    8.0952546875e+04
    1.9129840657e-02    8.0953031250e+04
    1.9139949232e-02    8.0953632812e+04
    1.9149797037e-02    8.0954257812e+04
    1.9159903750e-02    8.0954921875e+04
    1.9169751555e-02    8.0955695312e+04
    1.9179858267e-02    8.0956679688e+04
    1.9189966843e-02    8.0957757812e+04
    1.9199814647e-02    8.0958835938e+04
    1.9209923223e-02    8.0960054688e+04
    1.9219772890e-02    8.0961390625e+04
    1.9229879603e-02    8.0962828125e+04
    1.9239988178e-02    8.0964304688e+04
    1.9249837846e-02    8.0965828125e+04
    1.9259946421e-02    8.0967500000e+04
    1.9269796088e-02    8.0969234375e+04
    1.9279906526e-02    8.0971070312e+04
    1.9289756194e-02    8.0972867188e+04
    1.9299866632e-02    8.0974765625e+04
    1.9309975207e-02    8.0976835938e+04
    1.9319826737e-02    8.0979031250e+04
    1.9329937175e-02    8.0981367188e+04
    1.9339788705e-02    8.0983656250e+04
    1.9349901006e-02    8.0986093750e+04
    1.9359752536e-02    8.0988609375e+04
    1.9369862974e-02    8.0991328125e+04
    1.9379973412e-02    8.0994132812e+04
    1.9389826804e-02    8.0996906250e+04
    1.9399937242e-02    8.0999843750e+04
    1.9409788772e-02    8.1002843750e+04
    1.9419901073e-02    8.1006015625e+04
    1.9429754466e-02    8.1009117188e+04
    1.9439868629e-02    8.1012367188e+04
[...]
    1.1513987184e-01    1.0122908594e+05
    1.1514977366e-01    1.0122907031e+05
    1.1515998095e-01    1.0122905469e+05
    1.1516988277e-01    1.0122905469e+05
    1.1517978460e-01    1.0122903906e+05
    1.1518998444e-01    1.0122903906e+05
    1.1519988626e-01    1.0122903125e+05
    1.1520978808e-01    1.0122902344e+05
    1.1521999538e-01    1.0122902344e+05
    1.1522989720e-01    1.0122900781e+05
    1.1523979902e-01    1.0122900000e+05
    1.1524999887e-01    1.0122899219e+05
    1.1525990069e-01    1.0122897656e+05
    1.1526980251e-01    1.0122897656e+05
    1.1527970433e-01    1.0122897656e+05
    1.1528990418e-01    1.0122896875e+05
    1.1529980600e-01    1.0122896094e+05
    1.1530971527e-01    1.0122896094e+05
    1.1531991512e-01    1.0122894531e+05
    1.1532981694e-01    1.0122893750e+05
    1.1533971876e-01    1.0122892969e+05
    1.1534991860e-01    1.0122891406e+05
    1.1535982043e-01    1.0122891406e+05
    1.1536972225e-01    1.0122890625e+05
    1.1537992954e-01    1.0122889844e+05
    1.1538983136e-01    1.0122889844e+05
    1.1539973319e-01    1.0122888281e+05
    1.1540993303e-01    1.0122887500e+05
    1.1541983485e-01    1.0122886719e+05
    1.1542973667e-01    1.0122885156e+05
    1.1543994397e-01    1.0122885156e+05
    1.1544984579e-01    1.0122884375e+05
    1.1545974761e-01    1.0122883594e+05
    1.1546994746e-01    1.0122883594e+05
    1.1547984928e-01    1.0122882031e+05
    1.1548975110e-01    1.0122881250e+05
    1.1549995095e-01    1.0122880469e+05
    1.1550985277e-01    1.0122878906e+05
    1.1551975459e-01    1.0122878906e+05
    1.1552996188e-01    1.0122878125e+05
    1.1553986371e-01    1.0122877344e+05
    1.1554976553e-01    1.0122877344e+05
    1.1555996537e-01    1.0122875781e+05
    1.1556986719e-01    1.0122875000e+05
    1.1557976902e-01    1.0122874219e+05
    1.1558997631e-01    1.0122874219e+05
    1.1559987813e-01    1.0122872656e+05
    1.1560977995e-01    1.0122872656e+05
    1.1561997980e-01    1.0122871875e+05
    1.1562988162e-01    1.0122871875e+05
    1.1563978344e-01    1.0122871094e+05
    1.1564999074e-01    1.0122871094e+05
    1.1565989256e-01    1.0122869531e+05
    1.1566979438e-01    1.0122868750e+05
    1.1567999423e-01    1.0122867969e+05
    1.1568989605e-01    1.0122866406e+05
    1.1569979787e-01    1.0122866406e+05
    1.1570969969e-01    1.0122864844e+05
    1.1571989954e-01    1.0122864844e+05
    1.1572980136e-01    1.0122862500e+05
    1.1573971063e-01    1.0122861719e+05
    1.1574991047e-01    1.0122860156e+05
    1.1575981230e-01    1.0122860156e+05
    1.1576971412e-01    1.0122859375e+05
    1.1577991396e-01    1.0122858594e+05
    1.1578981578e-01    1.0122858594e+05
    1.1579971761e-01    1.0122858594e+05
    1.1580992490e-01    1.0122858594e+05
    1.1581982672e-01    1.0122857031e+05
    1.1582972854e-01    1.0122857031e+05
    1.1583992839e-01    1.0122856250e+05
    1.1584983021e-01    1.0122855469e+05
    1.1585973203e-01    1.0122853906e+05
    1.1586993933e-01    1.0122853906e+05
    1.1587984115e-01    1.0122853125e+05
    1.1588974297e-01    1.0122852344e+05
    1.1589994282e-01    1.0122850781e+05
    1.1590984464e-01    1.0122850000e+05
    1.1591974646e-01    1.0122849219e+05
    1.1592994630e-01    1.0122847656e+05
    1.1593984812e-01    1.0122847656e+05
    1.1594974995e-01    1.0122846875e+05
    1.1595995724e-01    1.0122846875e+05
    1.1596985906e-01    1.0122846094e+05
    1.1597976089e-01    1.0122846094e+05
    1.1598996073e-01    1.0122844531e+05
    1.1599986255e-01    1.0122844531e+05
    1.1600976437e-01    1.0122843750e+05
    1.1601997167e-01    1.0122841406e+05
    1.1602987349e-01    1.0122841406e+05
    1.1603977531e-01    1.0122840625e+05
    1.1604997516e-01    1.0122839844e+05
    1.1605987698e-01    1.0122838281e+05
    1.1606977880e-01    1.0122837500e+05
    1.1607998610e-01    1.0122835156e+05
    1.1608988792e-01    1.0122835156e+05
    1.1609978974e-01    1.0122834375e+05
    1.1610998958e-01    1.0122834375e+05
    1.1611989141e-01    1.0122833594e+05
    1.1612979323e-01    1.0122833594e+05
    1.1613999307e-01    1.0122832031e+05
    1.1614989489e-01    1.0122831250e+05
    1.1615979671e-01    1.0122830469e+05
    1.1616970599e-01    1.0122828906e+05
    1.1617990583e-01    1.0122828906e+05
    1.1618980765e-01    1.0122828125e+05
    1.1619970948e-01    1.0122827344e+05
    1.1620990932e-01    1.0122827344e+05
    1.1621981114e-01    1.0122825781e+05
    1.1622971296e-01    1.0122825000e+05
    1.1623992026e-01    1.0122825000e+05
    1.1624982208e-01    1.0122824219e+05
    1.1625972390e-01    1.0122822656e+05
    1.1626992375e-01    1.0122822656e+05
    1.1627982557e-01    1.0122821875e+05
    1.1628972739e-01    1.0122821094e+05
    1.1629993469e-01    1.0122821094e+05
    1.1630983651e-01    1.0122818750e+05
    1.1631973833e-01    1.0122817969e+05
    1.1632993817e-01    1.0122816406e+05
    1.1633983999e-01    1.0122816406e+05
    1.1634974182e-01    1.0122815625e+05
    1.1635994166e-01    1.0122814844e+05
    1.1636984348e-01    1.0122814844e+05
    1.1637975276e-01    1.0122814844e+05
    1.1638995260e-01    1.0122813281e+05
    1.1639985442e-01    1.0122812500e+05
    1.1640975624e-01    1.0122811719e+05
    1.1641995609e-01    1.0122810156e+05
    1.1642985791e-01    1.0122810156e+05
    1.1643975973e-01    1.0122809375e+05
    1.1644996703e-01    1.0122808594e+05
    1.1645986885e-01    1.0122808594e+05
    1.1646977067e-01    1.0122807031e+05
    1.1647997051e-01    1.0122806250e+05
    1.1648987234e-01    1.0122805469e+05
    1.1649977416e-01    1.0122803906e+05
    1.1650998145e-01    1.0122803906e+05
    1.1651988328e-01    1.0122803125e+05
    1.1652978510e-01    1.0122802344e+05
    1.1653998494e-01    1.0122802344e+05
    1.1654988676e-01    1.0122800781e+05
    1.1655978858e-01    1.0122800000e+05
    1.1656998843e-01    1.0122799219e+05
    1.1657989025e-01    1.0122797656e+05
    1.1658979207e-01    1.0122797656e+05
    1.1659999937e-01    1.0122796875e+05
    1.1660990119e-01    1.0122796094e+05
    1.1661980301e-01    1.0122796094e+05
    1.1662970483e-01    1.0122794531e+05
    1.1663990468e-01    1.0122793750e+05
    1.1664980650e-01    1.0122792969e+05
    1.1665970832e-01    1.0122791406e+05
    1.1666991562e-01    1.0122791406e+05
    1.1667981744e-01    1.0122791406e+05
    1.1668971926e-01    1.0122790625e+05
    1.1669991910e-01    1.0122789844e+05
    1.1670982093e-01    1.0122789844e+05
    1.1671972275e-01    1.0122788281e+05
    1.1672993004e-01    1.0122787500e+05
    1.1673983186e-01    1.0122786719e+05
    1.1674973369e-01    1.0122785156e+05
    1.1675993353e-01    1.0122785156e+05
    1.1676983535e-01    1.0122785156e+05
    1.1677973717e-01    1.0122784375e+05
    1.1678993702e-01    1.0122783594e+05
    1.1679983884e-01    1.0122783594e+05
    1.1680974811e-01    1.0122782031e+05
    1.1681994796e-01    1.0122782031e+05
    1.1682984978e-01    1.0122781250e+05
    1.1683975160e-01    1.0122780469e+05
    1.1684995145e-01    1.0122778906e+05
    1.1685985327e-01    1.0122778906e+05
    1.1686975509e-01    1.0122778125e+05
    1.1687996238e-01    1.0122777344e+05
    1.1688986421e-01    1.0122777344e+05
    1.1689976603e-01    1.0122775781e+05
    1.1690996587e-01    1.0122774219e+05
    1.1691986769e-01    1.0122772656e+05
    1.1692976952e-01    1.0122772656e+05
    1.1693997681e-01    1.0122771875e+05
    1.1694987863e-01    1.0122771094e+05
    1.1695978045e-01    1.0122771094e+05
    1.1696998030e-01    1.0122769531e+05
    1.1697988212e-01    1.0122769531e+05
    1.1698978394e-01    1.0122768750e+05
    1.1699998379e-01    1.0122767969e+05
    1.1700988561e-01    1.0122766406e+05
    1.1701979488e-01    1.0122766406e+05
    1.1702999473e-01    1.0122766406e+05
    1.1703989655e-01    1.0122765625e+05
    1.1704979837e-01    1.0122764844e+05
    1.1705970019e-01    1.0122764844e+05
    1.1706990004e-01    1.0122763281e+05
    1.1707980186e-01    1.0122762500e+05
    1.1708970368e-01    1.0122761719e+05
    1.1709991097e-01    1.0122760156e+05
    1.1710981280e-01    1.0122760156e+05
    1.1711971462e-01    1.0122759375e+05
    1.1712991446e-01    1.0122758594e+05
    1.1713981628e-01    1.0122758594e+05
    1.1714971811e-01    1.0122757031e+05
    1.1715992540e-01    1.0122756250e+05
    1.1716982722e-01    1.0122755469e+05
    1.1717972904e-01    1.0122753906e+05
    1.1718992889e-01    1.0122753906e+05
    1.1719983071e-01    1.0122753125e+05
    1.1720973253e-01    1.0122752344e+05
    1.1721993238e-01    1.0122752344e+05
    1.1722984165e-01    1.0122750781e+05
    1.1723974347e-01    1.0122750000e+05
    1.1724994332e-01    1.0122750000e+05
    1.1725984514e-01    1.0122749219e+05
    1.1726974696e-01    1.0122749219e+05
    1.1727994680e-01    1.0122747656e+05
    1.1728984863e-01    1.0122747656e+05
    1.1729975045e-01    1.0122746875e+05
    1.1730995774e-01    1.0122746875e+05
    1.1731985956e-01    1.0122746094e+05
    1.1732976139e-01    1.0122744531e+05
    1.1733996123e-01    1.0122743750e+05
    1.1734986305e-01    1.0122742969e+05
    1.1735976487e-01    1.0122741406e+05
    1.1736997217e-01    1.0122741406e+05
    1.1737987399e-01    1.0122740625e+05
    1.1738977581e-01    1.0122739844e+05
    1.1739997566e-01    1.0122739844e+05
    1.1740987748e-01    1.0122738281e+05
    1.1741977930e-01    1.0122737500e+05
    1.1742997915e-01    1.0122736719e+05
    1.1743988097e-01    1.0122735156e+05
    1.1744979024e-01    1.0122735156e+05
    1.1745999008e-01    1.0122734375e+05
    1.1746989191e-01    1.0122733594e+05
    1.1747979373e-01    1.0122733594e+05
    1.1748999357e-01    1.0122733594e+05
    1.1749989539e-01    1.0122732031e+05
    1.1750979722e-01    1.0122731250e+05
    1.1751969904e-01    1.0122730469e+05
    1.1752990633e-01    1.0122728906e+05
    1.1753980815e-01    1.0122728906e+05
    1.1754970998e-01    1.0122728125e+05
    1.1755990982e-01    1.0122727344e+05
    1.1756981164e-01    1.0122727344e+05
    1.1757971346e-01    1.0122727344e+05
    1.1758992076e-01    1.0122725781e+05
    1.1759982258e-01    1.0122725000e+05
    1.1760972440e-01    1.0122724219e+05
    1.1761992425e-01    1.0122722656e+05
    1.1762982607e-01    1.0122722656e+05
    1.1763972789e-01    1.0122721875e+05
    1.1764992774e-01    1.0122721094e+05
    1.1765983701e-01    1.0122721094e+05
    1.1766973883e-01    1.0122721094e+05
    1.1767993867e-01    1.0122719531e+05
    1.1768984050e-01    1.0122718750e+05
    1.1769974232e-01    1.0122717969e+05
    1.1770994216e-01    1.0122716406e+05
    1.1771984398e-01    1.0122716406e+05
    1.1772974581e-01    1.0122715625e+05
    1.1773995310e-01    1.0122714844e+05
    1.1774985492e-01    1.0122714844e+05
    1.1775975674e-01    1.0122713281e+05
    1.1776995659e-01    1.0122712500e+05
    1.1777985841e-01    1.0122711719e+05
    1.1778976023e-01    1.0122711719e+05
    1.1779996753e-01    1.0122710156e+05
    1.1780986935e-01    1.0122710156e+05
    1.1781977117e-01    1.0122709375e+05
    1.1782997102e-01    1.0122708594e+05
    1.1783987284e-01    1.0122708594e+05
    1.1784977466e-01    1.0122707031e+05
    1.1785997450e-01    1.0122706250e+05
    1.1786988378e-01    1.0122705469e+05
    1.1787978560e-01    1.0122703906e+05
    1.1788998544e-01    1.0122703906e+05
    1.1789988726e-01    1.0122703125e+05
    1.1790978909e-01    1.0122702344e+05
    1.1791998893e-01    1.0122702344e+05
    1.1792989075e-01    1.0122700781e+05
    1.1793979257e-01    1.0122700781e+05
    1.1794999987e-01    1.0122700000e+05
    1.1795990169e-01    1.0122699219e+05
    1.1796980351e-01    1.0122697656e+05
    1.1797970533e-01    1.0122697656e+05
    1.1798990518e-01    1.0122696875e+05
    1.1799980700e-01    1.0122696094e+05
    1.1800970882e-01    1.0122696094e+05
    1.1801991612e-01    1.0122694531e+05
    1.1802981794e-01    1.0122693750e+05
    1.1803971976e-01    1.0122693750e+05
    1.1804991961e-01    1.0122692969e+05
    1.1805982143e-01    1.0122691406e+05
    1.1806972325e-01    1.0122691406e+05
    1.1807993054e-01    1.0122690625e+05
    1.1808983237e-01    1.0122689844e+05
    1.1809973419e-01    1.0122689844e+05
    1.1810993403e-01    1.0122688281e+05
    1.1811983585e-01    1.0122687500e+05
    1.1812973768e-01    1.0122686719e+05
    1.1813993752e-01    1.0122685156e+05
    1.1814983934e-01    1.0122685156e+05
    1.1815974116e-01    1.0122685156e+05
    1.1816994846e-01    1.0122684375e+05
    1.1817985028e-01    1.0122683594e+05
    1.1818975210e-01    1.0122683594e+05
    1.1819995195e-01    1.0122682031e+05
    1.1820985377e-01    1.0122681250e+05
    1.1821975559e-01    1.0122680469e+05
    1.1822996289e-01    1.0122678906e+05
    1.1823986471e-01    1.0122678906e+05
    1.1824976653e-01    1.0122678125e+05
    1.1825996637e-01    1.0122678125e+05
    1.1826986820e-01    1.0122677344e+05
    1.1827977002e-01    1.0122677344e+05
    1.1828997731e-01    1.0122675781e+05
    1.1829987913e-01    1.0122675000e+05
    1.1830978096e-01    1.0122674219e+05
    1.1831998080e-01    1.0122672656e+05
    1.1832988262e-01    1.0122672656e+05
    1.1833978444e-01    1.0122672656e+05
    1.1834998429e-01    1.0122671875e+05
    1.1835988611e-01    1.0122671094e+05
    1.1836978793e-01    1.0122671094e+05
    1.1837999523e-01    1.0122669531e+05
    1.1838989705e-01    1.0122668750e+05
    1.1839979887e-01    1.0122667969e+05
    1.1840970069e-01    1.0122666406e+05
    1.1841990054e-01    1.0122666406e+05
    1.1842980236e-01    1.0122666406e+05
    1.1843970418e-01    1.0122665625e+05
    1.1844991148e-01    1.0122664844e+05
    1.1845981330e-01    1.0122664844e+05
    1.1846971512e-01    1.0122663281e+05
    1.1847991496e-01    1.0122662500e+05
    1.1848981678e-01    1.0122662500e+05
    1.1849971861e-01    1.0122661719e+05
    1.1850992590e-01    1.0122660156e+05
    1.1851982772e-01    1.0122660156e+05
    1.1852972955e-01    1.0122659375e+05
    1.1853992939e-01    1.0122658594e+05
    1.1854983121e-01    1.0122658594e+05
    1.1855973303e-01    1.0122657031e+05
    1.1856993288e-01    1.0122656250e+05
    1.1857984215e-01    1.0122656250e+05
    1.1858974397e-01    1.0122655469e+05
    1.1859994382e-01    1.0122653906e+05
    1.1860984564e-01    1.0122653906e+05
    1.1861974746e-01    1.0122653125e+05
    1.1862994730e-01    1.0122652344e+05
    1.1863984913e-01    1.0122652344e+05
    1.1864975095e-01    1.0122652344e+05
    1.1865995824e-01    1.0122650781e+05
    1.1866986006e-01    1.0122650000e+05
    1.1867976189e-01    1.0122647656e+05
    1.1868996173e-01    1.0122647656e+05
    1.1869986355e-01    1.0122646875e+05
    1.1870976537e-01    1.0122646875e+05
    1.1871997267e-01    1.0122646094e+05
    1.1872987449e-01    1.0122646094e+05
    1.1873977631e-01    1.0122644531e+05
    1.1874997616e-01    1.0122643750e+05
    1.1875987798e-01    1.0122642969e+05
    1.1876977980e-01    1.0122641406e+05
    1.1877998710e-01    1.0122641406e+05
    1.1878988892e-01    1.0122641406e+05
    1.1879979074e-01    1.0122640625e+05
    1.1880999058e-01    1.0122639844e+05
    1.1881989241e-01    1.0122639844e+05
    1.1882979423e-01    1.0122638281e+05
    1.1883999407e-01    1.0122637500e+05
    1.1884989589e-01    1.0122636719e+05
    1.1885980517e-01    1.0122635156e+05
    1.1886970699e-01    1.0122635156e+05
    1.1887990683e-01    1.0122634375e+05
    1.1888980865e-01    1.0122634375e+05
    1.1889971048e-01    1.0122633594e+05
    1.1890991032e-01    1.0122633594e+05
    1.1891981214e-01    1.0122632031e+05
    1.1892971396e-01    1.0122632031e+05
    1.1893992126e-01    1.0122631250e+05
    1.1894982308e-01    1.0122630469e+05
    1.1895972490e-01    1.0122628906e+05
    1.1896992475e-01    1.0122628906e+05
    1.1897982657e-01    1.0122628125e+05
    1.1898972839e-01    1.0122627344e+05
    1.1899993569e-01    1.0122627344e+05
    1.1900983751e-01    1.0122625781e+05
    1.1901973933e-01    1.0122625000e+05
    1.1902993917e-01    1.0122624219e+05
    1.1903984100e-01    1.0122624219e+05
    1.1904974282e-01    1.0122622656e+05
    1.1905995011e-01    1.0122622656e+05
    1.1906985193e-01    1.0122621875e+05
    1.1907975376e-01    1.0122621875e+05
    1.1908995360e-01    1.0122621094e+05
    1.1909985542e-01    1.0122621094e+05
    1.1910975724e-01    1.0122619531e+05
    1.1911995709e-01    1.0122618750e+05
    1.1912985891e-01    1.0122617969e+05
    1.1913976818e-01    1.0122617969e+05
    1.1914996803e-01    1.0122616406e+05
    1.1915986985e-01    1.0122616406e+05
    1.1916977167e-01    1.0122615625e+05
    1.1917997152e-01    1.0122614844e+05
    1.1918987334e-01    1.0122614844e+05
    1.1919977516e-01    1.0122613281e+05
    1.1920998245e-01    1.0122612500e+05
    1.1921988428e-01    1.0122611719e+05
    1.1922978610e-01    1.0122610156e+05
    1.1923998594e-01    1.0122610156e+05
    1.1924988776e-01    1.0122609375e+05
    1.1925978959e-01    1.0122608594e+05
    1.1926999688e-01    1.0122608594e+05
    1.1927989870e-01    1.0122608594e+05
    1.1928980052e-01    1.0122607031e+05
    1.1929970235e-01    1.0122606250e+05
    1.1930990219e-01    1.0122606250e+05
    1.1931980401e-01    1.0122605469e+05
    1.1932970583e-01    1.0122603906e+05
    1.1933991313e-01    1.0122603906e+05
    1.1934981495e-01    1.0122603125e+05
    1.1935971677e-01    1.0122603125e+05
    1.1936991662e-01    1.0122602344e+05
    1.1937981844e-01    1.0122602344e+05
    1.1938972026e-01    1.0122600781e+05
    1.1939992011e-01    1.0122600000e+05
    1.1940982938e-01    1.0122599219e+05
    1.1941973120e-01    1.0122597656e+05
    1.1942993104e-01    1.0122597656e+05
    1.1943983287e-01    1.0122596094e+05
    1.1944973469e-01    1.0122596094e+05
    1.1945993453e-01    1.0122594531e+05
    1.1946983635e-01    1.0122593750e+05
    1.1947973818e-01    1.0122592969e+05
    1.1948994547e-01    1.0122592969e+05
    1.1949984729e-01    1.0122591406e+05
    1.1950974911e-01    1.0122591406e+05
    1.1951994896e-01    1.0122591406e+05
    1.1952985078e-01    1.0122590625e+05
    1.1953975260e-01    1.0122590625e+05
    1.1954995990e-01    1.0122589844e+05
    1.1955986172e-01    1.0122589844e+05
    1.1956976354e-01    1.0122588281e+05
    1.1957996339e-01    1.0122587500e+05
    1.1958986521e-01    1.0122587500e+05
    1.1959976703e-01    1.0122586719e+05
    1.1960997432e-01    1.0122585156e+05
    1.1961987615e-01    1.0122585156e+05
    1.1962977797e-01    1.0122585156e+05
    1.1963997781e-01    1.0122585156e+05
    1.1964987963e-01    1.0122584375e+05
    1.1965978146e-01    1.0122583594e+05
    1.1966998130e-01    1.0122583594e+05
    1.1967989057e-01    1.0122582031e+05
    1.1968979239e-01    1.0122581250e+05
    1.1969999224e-01    1.0122580469e+05
    1.1970989406e-01    1.0122578906e+05
    1.1971979588e-01    1.0122578906e+05
    1.1972999573e-01    1.0122578125e+05
    1.1973989755e-01    1.0122577344e+05
    1.1974980682e-01    1.0122577344e+05
    1.1975970864e-01    1.0122575781e+05
    1.1976990849e-01    1.0122575000e+05
    1.1977981031e-01    1.0122575000e+05
    1.1978971213e-01    1.0122574219e+05
    1.1979991198e-01    1.0122572656e+05
    1.1980981380e-01    1.0122572656e+05
    1.1981971562e-01    1.0122572656e+05
    1.1982992291e-01    1.0122571875e+05
    1.1983982474e-01    1.0122571094e+05
    1.1984972656e-01    1.0122571094e+05
    1.1985992640e-01    1.0122569531e+05
    1.1986982822e-01    1.0122568750e+05
    1.1987973005e-01    1.0122567969e+05
    1.1988993734e-01    1.0122566406e+05
    1.1989983916e-01    1.0122566406e+05
    1.1990974098e-01    1.0122565625e+05
    1.1991994083e-01    1.0122564844e+05
    1.1992984265e-01    1.0122564844e+05
    1.1993974447e-01    1.0122563281e+05
    1.1994995177e-01    1.0122562500e+05
    1.1995985359e-01    1.0122562500e+05
    1.1996975541e-01    1.0122561719e+05
    1.1997995526e-01    1.0122560156e+05
    1.1998985708e-01    1.0122560156e+05
    1.1999975890e-01    1.0122560156e+05
endcurve
