Curveplot
LS-DYNA keyword deck by LS-PrePost                          
Time
Pressure
Defined Connection
Pressure @ 57 #pts=14001
* Minval=     9.8055031250e+04 at time=         0.1399999559
* Maxval=     1.0611678906e+05 at time=         0.0749596879
    0.0000000000e+00    1.0120000000e+05
    9.9483759186e-06    1.0120000000e+05
    1.9955363314e-05    1.0120000000e+05
    2.9973374694e-05    1.0120000000e+05
    3.9995680709e-05    1.0120000000e+05
    4.9973859859e-05    1.0120000000e+05
    5.9990848968e-05    1.0120000000e+05
    6.9994792284e-05    1.0120000000e+05
    7.9957033449e-05    1.0120000000e+05
    8.9998415206e-05    1.0120000000e+05
    9.9946519185e-05    1.0120000000e+05
    1.0993350588e-04    1.0120000000e+05
    1.1994177476e-04    1.0120000000e+05
    1.2995488942e-04    1.0120000000e+05
    1.3995602785e-04    1.0120000000e+05
    1.4992775687e-04    1.0120000000e+05
    1.5994397108e-04    1.0120000000e+05
    1.6999211221e-04    1.0120000000e+05
    1.7995700182e-04    1.0120000000e+05
    1.8999700842e-04    1.0120000000e+05
    1.9990665896e-04    1.0120000000e+05
    2.0997757383e-04    1.0120000000e+05
    2.1990633104e-04    1.0120000000e+05
    2.2999313660e-04    1.0120000000e+05
    2.3992518254e-04    1.0120000000e+05
    2.4990530801e-04    1.0120000000e+05
    2.5993236341e-04    1.0120000000e+05
    2.6989472099e-04    1.0120000000e+05
    2.7989773662e-04    1.0120000000e+05
    2.8994010063e-04    1.0120000000e+05
    2.9990507755e-04    1.0120000000e+05
    3.0990270898e-04    1.0120000000e+05
    3.1993089942e-04    1.0120000000e+05
    3.2998819370e-04    1.0120000000e+05
    3.3995072590e-04    1.0120000000e+05
    3.4993523150e-04    1.0120000000e+05
    3.5993996426e-04    1.0120000000e+05
    3.6996314884e-04    1.0120000000e+05
    3.7987326505e-04    1.0120000000e+05
    3.8992540794e-04    1.0120000000e+05
    3.9998994907e-04    1.0120000000e+05
    4.0992948925e-04    1.0120000000e+05
    4.1987330769e-04    1.0120000000e+05
    4.2995781405e-04    1.0120000000e+05
    4.3990410632e-04    1.0120000000e+05
    4.4998998055e-04    1.0120000000e+05
    4.5992870582e-04    1.0120000000e+05
    4.6985864174e-04    1.0120000000e+05
    4.7992597683e-04    1.0120000000e+05
    4.8998248531e-04    1.0120000000e+05
    4.9987190869e-04    1.0120000000e+05
    5.0989538431e-04    1.0120000000e+05
    5.1989842905e-04    1.0120000000e+05
    5.2987784147e-04    1.0120000000e+05
    5.3999159718e-04    1.0120000000e+05
    5.4991489742e-04    1.0120000000e+05
    5.5996939773e-04    1.0120000000e+05
    5.6998961372e-04    1.0120000000e+05
    5.7997170370e-04    1.0120000000e+05
    5.8991170954e-04    1.0120000000e+05
    5.9998041252e-04    1.0120000000e+05
    6.0982618015e-04    1.0120000000e+05
    6.1997608282e-04    1.0120000000e+05
    6.2989472644e-04    1.0120000000e+05
    6.3993845833e-04    1.0120000000e+05
    6.4992386615e-04    1.0120000000e+05
    6.5984606044e-04    1.0120000000e+05
    6.6989165498e-04    1.0120000000e+05
    6.7987001967e-04    1.0120000000e+05
    6.8997190101e-04    1.0120000000e+05
    6.9980433909e-04    1.0120000000e+05
    7.0995563874e-04    1.0120000000e+05
    7.1982824011e-04    1.0120000000e+05
    7.2982010897e-04    1.0120000000e+05
    7.3993386468e-04    1.0120000000e+05
    7.4996182229e-04    1.0120000000e+05
    7.5989944162e-04    1.0120000000e+05
    7.6995679410e-04    1.0120000000e+05
    7.7991862781e-04    1.0120000000e+05
    7.8999967081e-04    1.0120000000e+05
    7.9998007277e-04    1.0120000000e+05
    8.0985476961e-04    1.0120000000e+05
    8.1984570716e-04    1.0120000000e+05
    8.2995684352e-04    1.0120000000e+05
    8.3995639579e-04    1.0120000000e+05
    8.4984110435e-04    1.0120000000e+05
    8.5984112229e-04    1.0120000000e+05
    8.6996046593e-04    1.0120000000e+05
    8.7995879585e-04    1.0120000000e+05
    8.8982848683e-04    1.0120000000e+05
    8.9981232304e-04    1.0120000000e+05
    9.0991781326e-04    1.0120000000e+05
    9.1988709755e-04    1.0120000000e+05
    9.2997524189e-04    1.0120000000e+05
    9.3992229085e-04    1.0120000000e+05
    9.4998837449e-04    1.0120000000e+05
    9.5990614500e-04    1.0120000000e+05
    9.6994143678e-04    1.0120000000e+05
    9.7982259467e-04    1.0120000000e+05
    9.8982034251e-04    1.0120000000e+05
    9.9993939511e-04    1.0120000000e+05
    1.0098959319e-03    1.0120000000e+05
    1.0199722601e-03    1.0120000000e+05
    1.0298786219e-03    1.0120000000e+05
    1.0399044259e-03    1.0120000000e+05
    1.0497528128e-03    1.0120000000e+05
    1.0597191285e-03    1.0120000000e+05
    1.0698076803e-03    1.0120000000e+05
    1.0797097348e-03    1.0120000000e+05
    1.0897326283e-03    1.0120000000e+05
    1.0998797370e-03    1.0120000000e+05
    1.1098316172e-03    1.0120000000e+05
    1.1199068977e-03    1.0120000000e+05
    1.1297776364e-03    1.0120000000e+05
    1.1397709604e-03    1.0120000000e+05
    1.1498897802e-03    1.0120000000e+05
    1.1597947450e-03    1.0120000000e+05
    1.1698241578e-03    1.0120000000e+05
    1.1799819767e-03    1.0120000000e+05
    1.1899148813e-03    1.0120000000e+05
    1.1999750277e-03    1.0120000000e+05
    1.2097997824e-03    1.0120000000e+05
    1.2197502656e-03    1.0120000000e+05
    1.2298303191e-03    1.0120000000e+05
    1.2396633392e-03    1.0120000000e+05
    1.2496241834e-03    1.0120000000e+05
    1.2597171590e-03    1.0120000000e+05
    1.2699465733e-03    1.0120000000e+05
    1.2799155666e-03    1.0120000000e+05
    1.2896124972e-03    1.0120000000e+05
    1.2998501770e-03    1.0120000000e+05
    1.3098136988e-03    1.0120000000e+05
    1.3199147070e-03    1.0120000000e+05
    1.3297285186e-03    1.0120000000e+05
    1.3396721333e-03    1.0120000000e+05
    1.3497190084e-03    1.0120000000e+05
    1.3598380610e-03    1.0120000000e+05
    1.3699993724e-03    1.0120000000e+05
    1.3797630090e-03    1.0120000000e+05
    1.3899892801e-03    1.0120000000e+05
    1.3998036738e-03    1.0120000000e+05
    1.4095843071e-03    1.0120000000e+05
    1.4198403805e-03    1.0120000000e+05
    1.4296388254e-03    1.0120000000e+05
    1.4398733620e-03    1.0120000000e+05
    1.4496250078e-03    1.0120000000e+05
    1.4598595444e-03    1.0120000000e+05
    1.4696168946e-03    1.0120000000e+05
    1.4798518969e-03    1.0120000000e+05
    1.4896061039e-03    1.0120000000e+05
    1.4997462276e-03    1.0120000000e+05
    1.5099733137e-03    1.0120000000e+05
    1.5198009787e-03    1.0120000000e+05
    1.5296362108e-03    1.0120000000e+05
    1.5399456024e-03    1.0120000000e+05
    1.5498442808e-03    1.0120000000e+05
    1.5597798629e-03    1.0120000000e+05
    1.5697348863e-03    1.0120000000e+05
    1.5796998050e-03    1.0120000000e+05
    1.5896664700e-03    1.0120000000e+05
    1.5996315051e-03    1.0120000000e+05
    1.6095809406e-03    1.0120000000e+05
    1.6199402744e-03    1.0120000000e+05
    1.6298091505e-03    1.0120000000e+05
    1.6396084102e-03    1.0120000000e+05
    1.6497611068e-03    1.0120000000e+05
    1.6598007642e-03    1.0120000000e+05
    1.6697263345e-03    1.0120000000e+05
    1.6799652949e-03    1.0120000000e+05
    1.6896663001e-03    1.0120000000e+05
    1.6996762715e-03    1.0120000000e+05
    1.7099833349e-03    1.0120000000e+05
    1.7197648995e-03    1.0120000000e+05
    1.7298385501e-03    1.0120000000e+05
    1.7397968331e-03    1.0120000000e+05
    1.7496420769e-03    1.0120000000e+05
    1.7597636906e-03    1.0120000000e+05
    1.7697671428e-03    1.0120000000e+05
    1.7796547618e-03    1.0120000000e+05
    1.7898024525e-03    1.0120000000e+05
    1.7998293042e-03    1.0120000000e+05
    1.8097374123e-03    1.0120000000e+05
    1.8198888283e-03    1.0120000000e+05
    1.8299161457e-03    1.0120000000e+05
    1.8398215761e-03    1.0120000000e+05
    1.8499537837e-03    1.0120000000e+05
    1.8599580508e-03    1.0120000000e+05
    1.8698365893e-03    1.0120000000e+05
    1.8799242098e-03    1.0120000000e+05
    1.8898802809e-03    1.0120000000e+05
    1.8997055013e-03    1.0120000000e+05
    1.9097221084e-03    1.0120000000e+05
    1.9199182279e-03    1.0120000000e+05
    1.9299689448e-03    1.0120000000e+05
    1.9398757722e-03    1.0120000000e+05
    1.9499422051e-03    1.0120000000e+05
    1.9598570652e-03    1.0120000000e+05
    1.9699139521e-03    1.0120000000e+05
    1.9798108842e-03    1.0120000000e+05
    1.9898319151e-03    1.0120000000e+05
    1.9999626093e-03    1.0120000000e+05
    2.0099135581e-03    1.0120000000e+05
    2.0199532155e-03    1.0120000000e+05
    2.0298014861e-03    1.0120000000e+05
    2.0399738569e-03    1.0120000000e+05
    2.0499303937e-03    1.0120000000e+05
    2.0599153358e-03    1.0120000000e+05
    2.0699079614e-03    1.0120000000e+05
    2.0798866171e-03    1.0120000000e+05
    2.0898263901e-03    1.0120000000e+05
    2.0999214612e-03    1.0120000000e+05
    2.1099066362e-03    1.0120000000e+05
    2.1199521143e-03    1.0120000000e+05
    2.1299910732e-03    1.0120000000e+05
    2.1399455145e-03    1.0120000000e+05
    2.1498950664e-03    1.0120000000e+05
    2.1598427556e-03    1.0120000000e+05
    2.1699611098e-03    1.0120000000e+05
    2.1798827220e-03    1.0120000000e+05
    2.1899177227e-03    1.0120000000e+05
    2.1998477168e-03    1.0120000000e+05
    2.2098394111e-03    1.0120000000e+05
    2.2198730148e-03    1.0120000000e+05
    2.2298344411e-03    1.0120000000e+05
    2.2399052978e-03    1.0120000000e+05
    2.2498585749e-03    1.0120000000e+05
    2.2599301301e-03    1.0120000000e+05
    2.2699625697e-03    1.0120000000e+05
    2.2798015270e-03    1.0120000000e+05
    2.2898721509e-03    1.0120000000e+05
    2.2999220528e-03    1.0120000000e+05
    2.3098946549e-03    1.0120000000e+05
    2.3198768031e-03    1.0120000000e+05
    2.3298761807e-03    1.0120000000e+05
    2.3398594931e-03    1.0120000000e+05
    2.3497904185e-03    1.0120000000e+05
    2.3597849067e-03    1.0120000000e+05
    2.3698573932e-03    1.0120000000e+05
    2.3798302282e-03    1.0120000000e+05
    2.3898449726e-03    1.0120000000e+05
    2.3999984842e-03    1.0120000000e+05
    2.4099564180e-03    1.0120000000e+05
    2.4197951425e-03    1.0120000000e+05
    2.4299270008e-03    1.0120000000e+05
    2.4399000686e-03    1.0120000000e+05
    2.4499499705e-03    1.0120000000e+05
    2.4598168675e-03    1.0120000000e+05
    2.4699969217e-03    1.0120000000e+05
    2.4799956009e-03    1.0120000000e+05
    2.4897933472e-03    1.0120000000e+05
    2.4999130983e-03    1.0120000000e+05
    2.5098389015e-03    1.0120000000e+05
    2.5198117364e-03    1.0120000000e+05
    2.5298332330e-03    1.0120000000e+05
    2.5398929138e-03    1.0120000000e+05
    2.5497463066e-03    1.0120000000e+05
    2.5599100627e-03    1.0120000000e+05
    2.5698612444e-03    1.0120000000e+05
    2.5798445567e-03    1.0120000000e+05
    2.5898697786e-03    1.0120000000e+05
    2.5999196805e-03    1.0120000000e+05
    2.6097698137e-03    1.0120000000e+05
    2.6199016720e-03    1.0120000000e+05
    2.6297904551e-03    1.0120000000e+05
    2.6399905328e-03    1.0120000000e+05
    2.6499596424e-03    1.0120000000e+05
    2.6599389967e-03    1.0120000000e+05
    2.6699572336e-03    1.0120000000e+05
    2.6799920015e-03    1.0120000000e+05
    2.6897899806e-03    1.0120000000e+05
    2.6998764370e-03    1.0120000000e+05
    2.7099719737e-03    1.0120000000e+05
    2.7198216412e-03    1.0120000000e+05
    2.7299562935e-03    1.0120000000e+05
    2.7398283128e-03    1.0120000000e+05
    2.7499780990e-03    1.0120000000e+05
    2.7598731685e-03    1.0120000000e+05
    2.7697673067e-03    1.0120000000e+05
    2.7799319942e-03    1.0120000000e+05
    2.7898382396e-03    1.0120000000e+05
    2.7997393627e-03    1.0120000000e+05
    2.8099063784e-03    1.0120000000e+05
    2.8198205400e-03    1.0120000000e+05
    2.8299936093e-03    1.0120000000e+05
    2.8398986906e-03    1.0120000000e+05
    2.8498256579e-03    1.0120000000e+05
    2.8597377241e-03    1.0120000000e+05
    2.8699249960e-03    1.0120000000e+05
    2.8798752464e-03    1.0120000000e+05
    2.8898033779e-03    1.0120000000e+05
    2.8997443151e-03    1.0120000000e+05
    2.9099972453e-03    1.0120000000e+05
    2.9199498240e-03    1.0120000000e+05
    2.9299117159e-03    1.0120000000e+05
    2.9399273917e-03    1.0120000000e+05
    2.9499160592e-03    1.0120000000e+05
    2.9599026311e-03    1.0120000000e+05
    2.9699439183e-03    1.0120000000e+05
    2.9799714684e-03    1.0120000000e+05
    2.9897345230e-03    1.0120000000e+05
    2.9998060782e-03    1.0120000000e+05
    3.0098690186e-03    1.0120000000e+05
    3.0199526809e-03    1.0120000000e+05
    3.0297939666e-03    1.0120000000e+05
    3.0398983508e-03    1.0120000000e+05
    3.0497405678e-03    1.0120000000e+05
    3.0598952435e-03    1.0120000000e+05
    3.0697737820e-03    1.0120000000e+05
    3.0799286906e-03    1.0120000000e+05
    3.0898326077e-03    1.0120000000e+05
    3.0997595750e-03    1.0120000000e+05
    3.1099575572e-03    1.0120000000e+05
    3.1198889483e-03    1.0120000000e+05
    3.1298410613e-03    1.0120000000e+05
    3.1398148276e-03    1.0120000000e+05
    3.1497851014e-03    1.0120000000e+05
    3.1597616617e-03    1.0120000000e+05
    3.1697638333e-03    1.0120000000e+05
    3.1797806732e-03    1.0120000000e+05
    3.1897937879e-03    1.0120000000e+05
    3.1998138875e-03    1.0120000000e+05
    3.2098605298e-03    1.0120000000e+05
    3.2199176494e-03    1.0120000000e+05
    3.2299768645e-03    1.0120000000e+05
    3.2397545874e-03    1.0120000000e+05
    3.2498419750e-03    1.0120000000e+05
    3.2599309925e-03    1.0120000000e+05
    3.2697478309e-03    1.0120000000e+05
    3.2798461616e-03    1.0120000000e+05
    3.2899631187e-03    1.0120000000e+05
    3.2998071983e-03    1.0120000000e+05
    3.3099355642e-03    1.0120000000e+05
    3.3197910525e-03    1.0120000000e+05
    3.3299429342e-03    1.0120000000e+05
    3.3398231026e-03    1.0120000000e+05
    3.3499638084e-03    1.0120000000e+05
    3.3598444425e-03    1.0120000000e+05
    3.3697453327e-03    1.0120000000e+05
    3.3799547236e-03    1.0120000000e+05
    3.3898809925e-03    1.0120000000e+05
    3.3997935243e-03    1.0120000000e+05
    3.4099891782e-03    1.0120000000e+05
    3.4199149814e-03    1.0120000000e+05
    3.4298568498e-03    1.0120000000e+05
    3.4398068674e-03    1.0120000000e+05
    3.4497578163e-03    1.0120000000e+05
    3.4599907231e-03    1.0120000000e+05
    3.4699374810e-03    1.0120000000e+05
    3.4798821434e-03    1.0120000000e+05
    3.4898249432e-03    1.0120000000e+05
    3.4997710027e-03    1.0120000000e+05
    3.5097221844e-03    1.0120000000e+05
    3.5199557897e-03    1.0120000000e+05
    3.5298988223e-03    1.0120000000e+05
    3.5398504697e-03    1.0120000000e+05
    3.5498077050e-03    1.0120000000e+05
    3.5597670358e-03    1.0120000000e+05
    3.5697228741e-03    1.0120000000e+05
    3.5799667239e-03    1.0120000000e+05
    3.5899309441e-03    1.0120000000e+05
    3.5999005195e-03    1.0120000000e+05
    3.6098691635e-03    1.0120000000e+05
    3.6198380403e-03    1.0120000000e+05
    3.6298269406e-03    1.0120000000e+05
    3.6398209631e-03    1.0120000000e+05
    3.6498173140e-03    1.0120000000e+05
    3.6598145962e-03    1.0120000000e+05
    3.6698265467e-03    1.0120000000e+05
    3.6798510700e-03    1.0120000000e+05
    3.6898811813e-03    1.0120000000e+05
    3.6999201402e-03    1.0120000000e+05
    3.7099581677e-03    1.0120000000e+05
    3.7199913058e-03    1.0120000000e+05
    3.7297338713e-03    1.0120000000e+05
    3.7397702690e-03    1.0120000000e+05
    3.7498213351e-03    1.0120000000e+05
    3.7598814815e-03    1.0120000000e+05
    3.7699448876e-03    1.0120000000e+05
    3.7797172554e-03    1.0120000000e+05
    3.7897755392e-03    1.0120000000e+05
    3.7998352200e-03    1.0120000000e+05
    3.8098986261e-03    1.0120000000e+05
    3.8199659903e-03    1.0120000000e+05
    3.8297444116e-03    1.0120000000e+05
    3.8398092147e-03    1.0120000000e+05
    3.8498726208e-03    1.0120000000e+05
    3.8599369582e-03    1.0120000000e+05
    3.8697179407e-03    1.0120000000e+05
    3.8797850721e-03    1.0120000000e+05
    3.8898510393e-03    1.0120000000e+05
    3.8999151438e-03    1.0120000000e+05
    3.9099841379e-03    1.0120000000e+05
    3.9197658189e-03    1.0120000000e+05
    3.9298338816e-03    1.0120000000e+05
    3.9398996159e-03    1.0120000000e+05
    3.9499695413e-03    1.0120000000e+05
    3.9597526193e-03    1.0120000000e+05
    3.9698225446e-03    1.0120000000e+05
    3.9798901416e-03    1.0120000000e+05
    3.9899619296e-03    1.0120000000e+05
    3.9997454733e-03    1.0120000000e+05
    4.0098167956e-03    1.0120000000e+05
    4.0198871866e-03    1.0120000000e+05
    4.0299594402e-03    1.0120000000e+05
    4.0397429839e-03    1.0120000000e+05
    4.0498138405e-03    1.0120000000e+05
    4.0598851629e-03    1.0120000000e+05
    4.0699555539e-03    1.0120000000e+05
    4.0797377005e-03    1.0120000000e+05
    4.0898071602e-03    1.0120000000e+05
    4.0998780169e-03    1.0120000000e+05
    4.1099484079e-03    1.0120000000e+05
    4.1197305545e-03    1.0120000000e+05
    4.1298000142e-03    1.0120000000e+05
    4.1398690082e-03    1.0120000000e+05
    4.1499375366e-03    1.0120000000e+05
    4.1597178206e-03    1.0120000000e+05
    4.1697854176e-03    1.0120000000e+05
    4.1798530146e-03    1.0120000000e+05
    4.1899201460e-03    1.0120000000e+05
    4.1999872774e-03    1.0120000000e+05
    4.2097666301e-03    1.0120000000e+05
    4.2198328301e-03    1.0120000000e+05
    4.2298985645e-03    1.0120000000e+05
    4.2399647646e-03    1.0120000000e+05
    4.2497441173e-03    1.0120000000e+05
    4.2598107830e-03    1.0120000000e+05
    4.2698751204e-03    1.0120000000e+05
    4.2799413204e-03    1.0120000000e+05
    4.2897257954e-03    1.0120000000e+05
    4.2998045683e-03    1.0120000000e+05
    4.3098824099e-03    1.0120000000e+05
    4.3199607171e-03    1.0120000000e+05
    4.3297586963e-03    1.0120000000e+05
    4.3398546986e-03    1.0120000000e+05
    4.3499497697e-03    1.0120000000e+05
    4.3597593904e-03    1.0120000000e+05
    4.3698712252e-03    1.0120000000e+05
    4.3797106482e-03    1.0120000000e+05
    4.3898373842e-03    1.0120000000e+05
    4.3999617919e-03    1.0120000000e+05
    4.4098100625e-03    1.0120000000e+05
    4.4199717231e-03    1.0120000000e+05
    4.4298483990e-03    1.0120000000e+05
    4.4397157617e-03    1.0120000000e+05
    4.4498839416e-03    1.0120000000e+05
    4.4597811066e-03    1.0120000000e+05
    4.4699837454e-03    1.0120000000e+05
    4.4798883609e-03    1.0120000000e+05
    4.4897911139e-03    1.0120000000e+05
    4.4997208752e-03    1.0120000000e+05
    4.5099584386e-03    1.0120000000e+05
    4.5198933221e-03    1.0120000000e+05
    4.5298296027e-03    1.0120000000e+05
    4.5397831127e-03    1.0120000000e+05
    4.5497557148e-03    1.0120000000e+05
    4.5597325079e-03    1.0120000000e+05
    4.5699989423e-03    1.0120000000e+05
    4.5799775980e-03    1.0120000000e+05
    4.5899813995e-03    1.0120000000e+05
    4.5999865979e-03    1.0120000000e+05
    4.6099903993e-03    1.0120000000e+05
    4.6197101474e-03    1.0120000000e+05
    4.6297339723e-03    1.0120000000e+05
    4.6397736296e-03    1.0120000000e+05
    4.6498170123e-03    1.0120000000e+05
    4.6598576009e-03    1.0120000000e+05
    4.6699149534e-03    1.0120000000e+05
    4.6799844131e-03    1.0120000000e+05
    4.6897549182e-03    1.0120000000e+05
    4.6998299658e-03    1.0120000000e+05
    4.7099157237e-03    1.0120000000e+05
    4.7197085805e-03    1.0120000000e+05
    4.7298152931e-03    1.0120000000e+05
    4.7399159521e-03    1.0120000000e+05
    4.7497274354e-03    1.0120000000e+05
    4.7598541714e-03    1.0120000000e+05
    4.7699846327e-03    1.0120000000e+05
    4.7798161395e-03    1.0120000000e+05
    4.7899624333e-03    1.0120000000e+05
    4.7998046502e-03    1.0120000000e+05
    4.8099625856e-03    1.0120000000e+05
    4.8198327422e-03    1.0120000000e+05
    4.8299957998e-03    1.0120000000e+05
    4.8398743384e-03    1.0120000000e+05
    4.8497659154e-03    1.0120000000e+05
    4.8599489965e-03    1.0120000000e+05
    4.8698470928e-03    1.0120000000e+05
    4.8797558993e-03    1.0120000000e+05
    4.8899590038e-03    1.0120000000e+05
    4.8998827115e-03    1.0120000000e+05
    4.9098101445e-03    1.0120000000e+05
    4.9197347835e-03    1.0120000000e+05
    4.9299784005e-03    1.0120000000e+05
    4.9399235286e-03    1.0120000000e+05
    4.9498616718e-03    1.0120000000e+05
    4.9598300830e-03    1.0120000000e+05
    4.9697933719e-03    1.0120000000e+05
    4.9797617830e-03    1.0120000000e+05
    4.9897516146e-03    1.0120000000e+05
    4.9997363240e-03    1.0120000000e+05
    5.0097173080e-03    1.0120000000e+05
    5.0197304226e-03    1.0120000000e+05
    5.0297300331e-03    1.0120000000e+05
    5.0397361629e-03    1.0120000000e+05
    5.0497674383e-03    1.0120000000e+05
    5.0597842783e-03    1.0120000000e+05
    5.0698118284e-03    1.0120000000e+05
    5.0798654556e-03    1.0120000000e+05
    5.0899027847e-03    1.0120000000e+05
    5.0999508239e-03    1.0120000000e+05
    5.1097194664e-03    1.0120000000e+05
    5.1197730936e-03    1.0120000000e+05
    5.1298476756e-03    1.0120000000e+05
    5.1399422809e-03    1.0120000000e+05
    5.1497151144e-03    1.0120000000e+05
    5.1598032005e-03    1.0120000000e+05
    5.1699178293e-03    1.0120000000e+05
    5.1797013730e-03    1.0120000000e+05
    5.1898187958e-03    1.0120000000e+05
    5.1999539137e-03    1.0120000000e+05
    5.2097686566e-03    1.0120000000e+05
    5.2199037746e-03    1.0120000000e+05
    5.2297543734e-03    1.0120000000e+05
    5.2398899570e-03    1.0120000000e+05
    5.2497410215e-03    1.0120000000e+05
    5.2599133924e-03    1.0120000000e+05
    5.2697639912e-03    1.0120000000e+05
    5.2799456753e-03    1.0120000000e+05
    5.2898372523e-03    1.0120000000e+05
    5.2997111343e-03    1.0120000000e+05
    5.3099123761e-03    1.0120000000e+05
    5.3198188543e-03    1.0120000000e+05
    5.3297076374e-03    1.0120000000e+05
    5.3399302997e-03    1.0120000000e+05
    5.3498614579e-03    1.0120000000e+05
    5.3597837687e-03    1.0120000000e+05
    5.3697219118e-03    1.0120000000e+05
    5.3799841553e-03    1.0120000000e+05
    5.3899199702e-03    1.0120000000e+05
    5.3998739459e-03    1.0120000000e+05
    5.4098423570e-03    1.0120000000e+05
    5.4198070429e-03    1.0120000000e+05
    5.4297889583e-03    1.0120000000e+05
    5.4397867061e-03    1.0120000000e+05
    5.4497723468e-03    1.0120000000e+05
    5.4597747512e-03    1.0120000000e+05
    5.4697855376e-03    1.0120000000e+05
    5.4797958583e-03    1.0120000000e+05
    5.4898173548e-03    1.0120000000e+05
    5.4998556152e-03    1.0120000000e+05
    5.5098878220e-03    1.0120000000e+05
    5.5199409835e-03    1.0120000000e+05
    5.5296896026e-03    1.0120000000e+05
    5.5397450924e-03    1.0120000000e+05
    5.5498126894e-03    1.0120000000e+05
    5.5598928593e-03    1.0120000000e+05
    5.5699767545e-03    1.0120000000e+05
    5.5797579698e-03    1.0120000000e+05
    5.5898698047e-03    1.0120000000e+05
    5.5999793112e-03    1.0120000000e+05
    5.6097805500e-03    1.0120000000e+05
    5.6198970415e-03    1.0120000000e+05
    5.6296982802e-03    1.0120000000e+05
    5.6398315355e-03    1.0120000000e+05
    5.6499843486e-03    1.0120000000e+05
    5.6598265655e-03    1.0120000000e+05
    5.6699961424e-03    1.0120000000e+05
    5.6798579171e-03    1.0120000000e+05
    5.6897127070e-03    1.0120000000e+05
    5.6998981163e-03    1.0120000000e+05
    5.7097724639e-03    1.0120000000e+05
    5.7199788280e-03    1.0120000000e+05
    5.7298787870e-03    1.0120000000e+05
    5.7397852652e-03    1.0120000000e+05
    5.7496926747e-03    1.0120000000e+05
    5.7599195279e-03    1.0120000000e+05
    5.7698320597e-03    1.0120000000e+05
    5.7797417976e-03    1.0120000000e+05
    5.7899886742e-03    1.0120000000e+05
    5.7999305427e-03    1.0120000000e+05
    5.8098817244e-03    1.0120000000e+05
    5.8198450133e-03    1.0120000000e+05
    5.8298157528e-03    1.0120000000e+05
    5.8397953399e-03    1.0120000000e+05
    5.8497772552e-03    1.0120000000e+05
    5.8597596362e-03    1.0120000000e+05
    5.8697438799e-03    1.0120000000e+05
    5.8797392994e-03    1.0120000000e+05
    5.8897421695e-03    1.0120000000e+05
    5.8997473679e-03    1.0120000000e+05
    5.9097679332e-03    1.0120000000e+05
    5.9197936207e-03    1.0120000000e+05
    5.9298225679e-03    1.0120000000e+05
    5.9398468584e-03    1.0120000000e+05
    5.9498660266e-03    1.0120000000e+05
    5.9598982334e-03    1.0120000000e+05
    5.9699462727e-03    1.0120000000e+05
    5.9796818532e-03    1.0120000000e+05
    5.9897480533e-03    1.0120000000e+05
    5.9998203069e-03    1.0120000000e+05
    6.0098893009e-03    1.0120000000e+05
    6.0199527070e-03    1.0120000000e+05
    6.0296915472e-03    1.0120000000e+05
    6.0397605412e-03    1.0120000000e+05
    6.0498393141e-03    1.0120000000e+05
    6.0599250719e-03    1.0120000000e+05
    6.0696862638e-03    1.0120000000e+05
    6.0797762126e-03    1.0120000000e+05
    6.0898670927e-03    1.0120000000e+05
    6.0999565758e-03    1.0120000000e+05
    6.1097163707e-03    1.0120000000e+05
    6.1198021285e-03    1.0120000000e+05
    6.1298916116e-03    1.0120000000e+05
    6.1399820261e-03    1.0120000000e+05
    6.1497464776e-03    1.0120000000e+05
    6.1598345637e-03    1.0120000000e+05
    6.1699217185e-03    1.0120000000e+05
    6.1796847731e-03    1.0120000000e+05
    6.1897728592e-03    1.0120000000e+05
    6.1998614110e-03    1.0120000000e+05
    6.2099564821e-03    1.0120000000e+05
    6.2197335064e-03    1.0120000000e+05
    6.2298388220e-03    1.0120000000e+05
    6.2399432063e-03    1.0120000000e+05
    6.2497295439e-03    1.0120000000e+05
    6.2598432414e-03    1.0120000000e+05
    6.2699643895e-03    1.0120000000e+05
    6.2797684222e-03    1.0120000000e+05
    6.2898998149e-03    1.0120000000e+05
    6.2997238711e-03    1.0120000000e+05
    6.3098873943e-03    1.0120000000e+05
    6.3197184354e-03    1.0120000000e+05
    6.3298703171e-03    1.0120000000e+05
    6.3397097401e-03    1.0120000000e+05
    6.3498918898e-03    1.0120000000e+05
    6.3597592525e-03    1.0120000000e+05
    6.3699674793e-03    1.0120000000e+05
    6.3798571937e-03    1.0120000000e+05
    6.3897673972e-03    1.0120000000e+05
    6.3996859826e-03    1.0120000000e+05
    6.4099333249e-03    1.0120000000e+05
    6.4198463224e-03    1.0120000000e+05
    6.4297732897e-03    1.0120000000e+05
    6.4397179522e-03    1.0120000000e+05
    6.4496709965e-03    1.0120000000e+05
    6.4599523321e-03    1.0120000000e+05
    6.4699077047e-03    1.0120000000e+05
    6.4798723906e-03    1.0120000000e+05
    6.4898314886e-03    1.0120000000e+05
    6.4997868612e-03    1.0120000000e+05
    6.5097357146e-03    1.0120000000e+05
    6.5197381191e-03    1.0120000000e+05
    6.5296664834e-03    1.0120000000e+05
    6.5398742445e-03    1.0120000000e+05
    6.5499958582e-03    1.0120000000e+05
    6.5596275963e-03    1.0120000000e+05
    6.5698665567e-03    1.0120000000e+05
    6.5799527802e-03    1.0120000000e+05
    6.5898601897e-03    1.0120000000e+05
    6.5999710932e-03    1.0120000000e+05
    6.6098636016e-03    1.0120000000e+05
    6.6199316643e-03    1.0120000000e+05
    6.6297464073e-03    1.0120000000e+05
    6.6397171468e-03    1.0120000000e+05
    6.6498355009e-03    1.0120000000e+05
    6.6596660763e-03    1.0120000000e+05
    6.6696400754e-03    1.0120000000e+05
    6.6797113977e-03    1.0120000000e+05
    6.6898362711e-03    1.0120000000e+05
    6.6995765083e-03    1.0120000000e+05
    6.7098587751e-03    1.0120000000e+05
    6.7197335884e-03    1.0120000000e+05
    6.7296796478e-03    1.0120000000e+05
    6.7397155799e-03    1.0120000000e+05
    6.7497990094e-03    1.0120000000e+05
    6.7599229515e-03    1.0120000000e+05
    6.7696790211e-03    1.0120000000e+05
    6.7799477838e-03    1.0120000000e+05
    6.7898253910e-03    1.0120000000e+05
    6.7997267470e-03    1.0120000000e+05
    6.8097147159e-03    1.0120000000e+05
    6.8197618239e-03    1.0120000000e+05
    6.8298201077e-03    1.0120000000e+05
    6.8399654701e-03    1.0120000000e+05
    6.8496619351e-03    1.0120000000e+05
    6.8599190563e-03    1.0120000000e+05
    6.8696509115e-03    1.0120000000e+05
    6.8799830042e-03    1.0120000000e+05
    6.8898713216e-03    1.0120000000e+05
    6.8998048082e-03    1.0120000000e+05
    6.9098174572e-03    1.0120000000e+05
    6.9198315032e-03    1.0120000000e+05
    6.9298502058e-03    1.0120000000e+05
    6.9399443455e-03    1.0120000000e+05
    6.9495681673e-03    1.0120000000e+05
    6.9597293623e-03    1.0120000000e+05
    6.9699613377e-03    1.0120000000e+05
    6.9796834141e-03    1.0120000000e+05
    6.9899484515e-03    1.0120000000e+05
    6.9996886887e-03    1.0120000000e+05
    7.0097618736e-03    1.0120000000e+05
    7.0199454203e-03    1.0120000000e+05
    7.0299636573e-03    1.0120000000e+05
    7.0397560485e-03    1.0120000000e+05
    7.0496634580e-03    1.0120000000e+05
    7.0598945022e-03    1.0120000000e+05
    7.0698554628e-03    1.0120000000e+05
    7.0799360983e-03    1.0120000000e+05
    7.0899077691e-03    1.0120000000e+05
    7.0999315940e-03    1.0120000000e+05
    7.1098878980e-03    1.0120000000e+05
    7.1198507212e-03    1.0120000000e+05
    7.1299476549e-03    1.0120000000e+05
    7.1398243308e-03    1.0120000000e+05
    7.1498760954e-03    1.0120000000e+05
    7.1599283256e-03    1.0120000000e+05
    7.1699004620e-03    1.0120000000e+05
    7.1799792349e-03    1.0120000000e+05
    7.1899020113e-03    1.0120000000e+05
    7.1999891661e-03    1.0120000000e+05
    7.2099347599e-03    1.0120000000e+05
    7.2198524140e-03    1.0120000000e+05
    7.2299879976e-03    1.0120000000e+05
    7.2399093769e-03    1.0120000000e+05
    7.2498032823e-03    1.0120000000e+05
    7.2599258274e-03    1.0120000000e+05
    7.2698225267e-03    1.0120000000e+05
    7.2799432091e-03    1.0120000000e+05
    7.2897630744e-03    1.0120000000e+05
    7.2997747920e-03    1.0120000000e+05
    7.3099369183e-03    1.0120000000e+05
    7.3199751787e-03    1.0120000000e+05
    7.3298877105e-03    1.0120000000e+05
    7.3398975655e-03    1.0120000000e+05
    7.3499837890e-03    1.0120000000e+05
    7.3599019088e-03    1.0120000000e+05
    7.3698810302e-03    1.0120000000e+05
    7.3799109086e-03    1.0120000000e+05
    7.3897489347e-03    1.0120000000e+05
    7.3998901062e-03    1.0120000000e+05
    7.4098007753e-03    1.0120000000e+05
    7.4197752401e-03    1.0120000000e+05
    7.4297650717e-03    1.0120000000e+05
    7.4397870339e-03    1.0120000000e+05
    7.4498699978e-03    1.0120000000e+05
    7.4599534273e-03    1.0120000000e+05
    7.4697961099e-03    1.0120000000e+05
    7.4799638242e-03    1.0120000000e+05
    7.4898470193e-03    1.0120000000e+05
    7.4997697957e-03    1.0120000000e+05
    7.5097340159e-03    1.0120000000e+05
    7.5199631974e-03    1.0120000000e+05
    7.5299581513e-03    1.0120000000e+05
    7.5399857014e-03    1.0120000000e+05
    7.5497333892e-03    1.0120000000e+05
    7.5597832911e-03    1.0120000000e+05
    7.5698657893e-03    1.0120000000e+05
    7.5799585320e-03    1.0120000000e+05
    7.5897951610e-03    1.0120000000e+05
    7.5999298133e-03    1.0120000000e+05
    7.6097915880e-03    1.0120000000e+05
    7.6199625619e-03    1.0120000000e+05
    7.6298695058e-03    1.0120000000e+05
    7.6397806406e-03    1.0120000000e+05
    7.6499897987e-03    1.0120000000e+05
    7.6599367894e-03    1.0120000000e+05
    7.6698935591e-03    1.0120000000e+05
    7.6798633672e-03    1.0120000000e+05
    7.6898415573e-03    1.0120000000e+05
    7.6998309232e-03    1.0120000000e+05
    7.7098389156e-03    1.0120000000e+05
    7.7198552899e-03    1.0120000000e+05
    7.7298767865e-03    1.0120000000e+05
    7.7399080619e-03    1.0120000000e+05
    7.7499556355e-03    1.0120000000e+05
    7.7597238123e-03    1.0120000000e+05
    7.7697825618e-03    1.0120000000e+05
    7.7798501588e-03    1.0120000000e+05
    7.7899270691e-03    1.0120000000e+05
    7.7997287735e-03    1.0120000000e+05
    7.8098252416e-03    1.0120000000e+05
    7.8199254349e-03    1.0120000000e+05
    7.8297480941e-03    1.0120000000e+05
    7.8398622572e-03    1.0120000000e+05
    7.8499773517e-03    1.0120000000e+05
    7.8598074615e-03    1.0120000000e+05
    7.8699318692e-03    1.0120000000e+05
    7.8797796741e-03    1.0120000000e+05
    7.8899236396e-03    1.0120000000e+05
    7.8997816890e-03    1.0120000000e+05
    7.9099312425e-03    1.0120000000e+05
    7.9197902232e-03    1.0120000000e+05
    7.9299388453e-03    1.0120000000e+05
    7.9397987574e-03    1.0120000000e+05
    7.9499483109e-03    1.0120000000e+05
    7.9598110169e-03    1.0120000000e+05
    7.9699652269e-03    1.0120000000e+05
    7.9798297957e-03    1.0120000000e+05
    7.9899858683e-03    1.0120000000e+05
    7.9998522997e-03    1.0120000000e+05
    8.0097196624e-03    1.0120000000e+05
    8.0198775977e-03    1.0120000000e+05
    8.0297449604e-03    1.0120000000e+05
    8.0399047583e-03    1.0120000000e+05
    8.0497749150e-03    1.0120000000e+05
    8.0599365756e-03    1.0120000000e+05
    8.0698085949e-03    1.0120000000e+05
    8.0799711868e-03    1.0120000000e+05
    8.0898441374e-03    1.0120000000e+05
    8.0997189507e-03    1.0120000000e+05
    8.1098834053e-03    1.0120000000e+05
    8.1197591498e-03    1.0120000000e+05
    8.1299245358e-03    1.0120000000e+05
    8.1398002803e-03    1.0120000000e+05
    8.1499665976e-03    1.0120000000e+05
    8.1598423421e-03    1.0120000000e+05
    8.1697199494e-03    1.0120000000e+05
    8.1798918545e-03    1.0120000000e+05
    8.1897778437e-03    1.0120000000e+05
    8.1999609247e-03    1.0120000000e+05
    8.2098543644e-03    1.0120000000e+05
    8.2197478041e-03    1.0120000000e+05
    8.2299299538e-03    1.0120000000e+05
    8.2398205996e-03    1.0120000000e+05
    8.2497103140e-03    1.0120000000e+05
    8.2598915324e-03    1.0120000000e+05
    8.2697849721e-03    1.0120000000e+05
    8.2799717784e-03    1.0120000000e+05
    8.2898670807e-03    1.0120000000e+05
    8.2997633144e-03    1.0120000000e+05
    8.3099491894e-03    1.0120000000e+05
    8.3198454231e-03    1.0120000000e+05
    8.3297416568e-03    1.0120000000e+05
    8.3399284631e-03    1.0120000000e+05
    8.3498246968e-03    1.0120000000e+05
    8.3597199991e-03    1.0120000000e+05
    8.3699086681e-03    1.0120000000e+05
    8.3798058331e-03    1.0120000000e+05
    8.3899945021e-03    1.0120000000e+05
    8.3998916671e-03    1.0120000000e+05
    8.4097879007e-03    1.0120000000e+05
    8.4199765697e-03    1.0120000000e+05
    8.4298746660e-03    1.0120000000e+05
    8.4397727624e-03    1.0120000000e+05
    8.4499614313e-03    1.0120000000e+05
    8.4598595276e-03    1.0120000000e+05
    8.4697576240e-03    1.0120000000e+05
    8.4799472243e-03    1.0120000000e+05
    8.4898462519e-03    1.0120000000e+05
    8.4997452796e-03    1.0120000000e+05
    8.5099348798e-03    1.0120000000e+05
    8.5198339075e-03    1.0120000000e+05
    8.5297329351e-03    1.0120000000e+05
    8.5399243981e-03    1.0120000000e+05
    8.5498243570e-03    1.0120000000e+05
    8.5597243160e-03    1.0120000000e+05
    8.5699157789e-03    1.0120000000e+05
    8.5798166692e-03    1.0120000000e+05
    8.5897175595e-03    1.0120000000e+05
    8.5999099538e-03    1.0120000000e+05
    8.6098108441e-03    1.0120000000e+05
    8.6197117344e-03    1.0120000000e+05
    8.6299050599e-03    1.0120000000e+05
    8.6398068815e-03    1.0120000000e+05
    8.6497087032e-03    1.0120000000e+05
    8.6599029601e-03    1.0120000000e+05
    8.6698057130e-03    1.0120000000e+05
    8.6799999699e-03    1.0120000000e+05
    8.6899027228e-03    1.0120000000e+05
    8.6998064071e-03    1.0120000000e+05
    8.7097100914e-03    1.0120000000e+05
    8.7199052796e-03    1.0120000000e+05
    8.7298098952e-03    1.0120000000e+05
    8.7397145107e-03    1.0120000000e+05
    8.7499115616e-03    1.0120000000e+05
    8.7598171085e-03    1.0120000000e+05
    8.7697226554e-03    1.0120000000e+05
    8.7799197063e-03    1.0120000000e+05
    8.7898261845e-03    1.0120000000e+05
    8.7997326627e-03    1.0120000000e+05
    8.8099306449e-03    1.0120000000e+05
    8.8198380545e-03    1.0120000000e+05
    8.8297454640e-03    1.0120000000e+05
    8.8399443775e-03    1.0120000000e+05
    8.8498527184e-03    1.0120000000e+05
    8.8597619906e-03    1.0120000000e+05
    8.8699618354e-03    1.0120000000e+05
    8.8798711076e-03    1.0120000000e+05
    8.8897813112e-03    1.0120000000e+05
    8.8999830186e-03    1.0120000000e+05
    8.9098932222e-03    1.0120000000e+05
    8.9198034257e-03    1.0120000000e+05
    8.9297145605e-03    1.0120000000e+05
    8.9399171993e-03    1.0120000000e+05
    8.9498292655e-03    1.0120000000e+05
    8.9597422630e-03    1.0120000000e+05
    8.9699458331e-03    1.0120000000e+05
    8.9798578992e-03    1.0120000000e+05
    8.9897708967e-03    1.0120000000e+05
    8.9999753982e-03    1.0120000000e+05
    9.0098893270e-03    1.0120000000e+05
    9.0198032558e-03    1.0120000000e+05
    9.0297181159e-03    1.0120000000e+05
    9.0399244800e-03    1.0120000000e+05
    9.0498402715e-03    1.0120000000e+05
    9.0597551316e-03    1.0120000000e+05
    9.0699624270e-03    1.0120000000e+05
    9.0798791498e-03    1.0120000000e+05
    9.0897949412e-03    1.0120000000e+05
    9.0997116640e-03    1.0120000000e+05
    9.1099208221e-03    1.0120000000e+05
    9.1198384762e-03    1.0120000000e+05
    9.1297570616e-03    1.0120000000e+05
    9.1399662197e-03    1.0120000000e+05
    9.1498848051e-03    1.0120000000e+05
    9.1598033905e-03    1.0120000000e+05
    9.1697229072e-03    1.0120000000e+05
    9.1799348593e-03    1.0120000000e+05
    9.1898543760e-03    1.0120000000e+05
    9.1997738928e-03    1.0120000000e+05
    9.2099867761e-03    1.0120000000e+05
    9.2199072242e-03    1.0120000000e+05
    9.2298286036e-03    1.0120000000e+05
    9.2397499830e-03    1.0120000000e+05
    9.2499637976e-03    1.0120000000e+05
    9.2598851770e-03    1.0120000000e+05
    9.2698074877e-03    1.0120000000e+05
    9.2797297984e-03    1.0120000000e+05
    9.2899454758e-03    1.0120000000e+05
    9.2998687178e-03    1.0120000000e+05
    9.3097919598e-03    1.0120000000e+05
    9.3197161332e-03    1.0120000000e+05
    9.3299318105e-03    1.0120000000e+05
    9.3398569152e-03    1.0120000000e+05
    9.3497810885e-03    1.0120000000e+05
    9.3599986285e-03    1.0120000000e+05
    9.3699237332e-03    1.0120000000e+05
    9.3798488379e-03    1.0120000000e+05
    9.3897758052e-03    1.0120000000e+05
    9.3999933451e-03    1.0120000000e+05
    9.4099203125e-03    1.0120000000e+05
    9.4198472798e-03    1.0120000000e+05
    9.4297742471e-03    1.0120000000e+05
    9.4399936497e-03    1.0120000000e+05
    9.4499215484e-03    1.0120000000e+05
    9.4598494470e-03    1.0120000000e+05
    9.4697773457e-03    1.0120000000e+05
    9.4799986109e-03    1.0120000000e+05
    9.4899265096e-03    1.0120000000e+05
    9.4998562708e-03    1.0120000000e+05
    9.5097851008e-03    1.0120000000e+05
    9.5197148621e-03    1.0120000000e+05
    9.5299370587e-03    1.0120000000e+05
    9.5398668200e-03    1.0120000000e+05
    9.5497975126e-03    1.0120000000e+05
    9.5597272739e-03    1.0120000000e+05
    9.5699504018e-03    1.0120000000e+05
    9.5798810944e-03    1.0120000000e+05
    9.5898127183e-03    1.0120000000e+05
    9.5997443423e-03    1.0120000000e+05
    9.6099684015e-03    1.0120000000e+05
    9.6199000254e-03    1.0120000000e+05
    9.6298316494e-03    1.0120000000e+05
    9.6397642046e-03    1.0120000000e+05
    9.6499891952e-03    1.0120000000e+05
    9.6599217504e-03    1.0120000000e+05
    9.6698543057e-03    1.0120000000e+05
    9.6797877923e-03    1.0120000000e+05
    9.6897203475e-03    1.0120000000e+05
    9.6999462694e-03    1.0120000000e+05
    9.7098797560e-03    1.0120000000e+05
    9.7198132426e-03    1.0120000000e+05
    9.7297476605e-03    1.0120000000e+05
    9.7399735823e-03    1.0120000000e+05
    9.7499080002e-03    1.0120000000e+05
    9.7598424181e-03    1.0120000000e+05
    9.7697768360e-03    1.0120000000e+05
    9.7797112539e-03    1.0120000000e+05
    9.7899371758e-03    1.0120000000e+05
    9.7998725250e-03    1.0120000000e+05
    9.8098069429e-03    1.0120000000e+05
    9.8197422922e-03    1.0120000000e+05
    9.8299691454e-03    1.0120000000e+05
    9.8399044946e-03    1.0120000000e+05
    9.8498398438e-03    1.0120000000e+05
    9.8597751930e-03    1.0120000000e+05
    9.8697105423e-03    1.0120000000e+05
    9.8799383268e-03    1.0120000000e+05
    9.8898736760e-03    1.0120000000e+05
    9.8998090252e-03    1.0120000000e+05
    9.9097443745e-03    1.0120000000e+05
    9.9199721590e-03    1.0120000000e+05
    9.9299075082e-03    1.0120000000e+05
    9.9398428574e-03    1.0120000000e+05
    9.9497782066e-03    1.0120000000e+05
    9.9597144872e-03    1.0120000000e+05
    9.9699413404e-03    1.0120000000e+05
    9.9798776209e-03    1.0120000000e+05
    9.9898129702e-03    1.0120000000e+05
    9.9997483194e-03    1.0120000000e+05
    1.0009976104e-02    1.0120000000e+05
    1.0019911453e-02    1.0120000000e+05
    1.0029846802e-02    1.0120000000e+05
    1.0039782152e-02    1.0120000000e+05
    1.0049717501e-02    1.0120000000e+05
    1.0059945285e-02    1.0120000000e+05
    1.0069880635e-02    1.0120000000e+05
    1.0079815984e-02    1.0120000000e+05
    1.0089750402e-02    1.0120000000e+05
    1.0099978186e-02    1.0120000000e+05
    1.0109913535e-02    1.0120000000e+05
    1.0119848885e-02    1.0120000000e+05
    1.0129784234e-02    1.0120000000e+05
    1.0139718652e-02    1.0120000000e+05
    1.0149946436e-02    1.0120000000e+05
    1.0159880854e-02    1.0120000000e+05
    1.0169816203e-02    1.0120000000e+05
    1.0179751553e-02    1.0120000000e+05
    1.0189978406e-02    1.0120000000e+05
    1.0199912824e-02    1.0120000000e+05
    1.0209848173e-02    1.0120000000e+05
    1.0219782591e-02    1.0120000000e+05
    1.0229717009e-02    1.0120000000e+05
    1.0239943862e-02    1.0120000000e+05
    1.0249878280e-02    1.0120000000e+05
    1.0259812698e-02    1.0120000000e+05
    1.0269747116e-02    1.0120000000e+05
    1.0279973969e-02    1.0120000000e+05
    1.0289908387e-02    1.0120000000e+05
    1.0299842805e-02    1.0120000000e+05
    1.0309777223e-02    1.0120000000e+05
    1.0319710709e-02    1.0120000000e+05
    1.0329937562e-02    1.0120000000e+05
    1.0339871049e-02    1.0120000000e+05
    1.0349805467e-02    1.0120000000e+05
    1.0359738953e-02    1.0120000000e+05
    1.0369964875e-02    1.0120000000e+05
    1.0379898362e-02    1.0120000000e+05
    1.0389832780e-02    1.0120000000e+05
    1.0399766266e-02    1.0120000000e+05
    1.0409992188e-02    1.0120000000e+05
    1.0419925675e-02    1.0120000000e+05
    1.0429860093e-02    1.0120000000e+05
    1.0439793579e-02    1.0120000000e+05
    1.0449727066e-02    1.0120000000e+05
    1.0459953919e-02    1.0120000000e+05
    1.0469888337e-02    1.0120000000e+05
    1.0479824618e-02    1.0120000000e+05
    1.0489761829e-02    1.0120000000e+05
    1.0499988683e-02    1.0120000000e+05
    1.0509926826e-02    1.0120000000e+05
    1.0519865900e-02    1.0120000000e+05
    1.0529805906e-02    1.0120000000e+05
    1.0539744981e-02    1.0120000000e+05
    1.0549978353e-02    1.0120000000e+05
    1.0559922084e-02    1.0120000000e+05
    1.0569865815e-02    1.0120000000e+05
    1.0579810478e-02    1.0120000000e+05
    1.0589753278e-02    1.0120000000e+05
    1.0599991307e-02    1.0120000000e+05
    1.0609942488e-02    1.0120000000e+05
    1.0619891807e-02    1.0120000000e+05
    1.0629841127e-02    1.0120000000e+05
    1.0639792308e-02    1.0120000000e+05
    1.0649746284e-02    1.0120000000e+05
    1.0659996420e-02    1.0120000000e+05
    1.0669953190e-02    1.0120000000e+05
    1.0679911822e-02    1.0120000000e+05
    1.0689874180e-02    1.0120000000e+05
    1.0699839331e-02    1.0120000000e+05
    1.0709805414e-02    1.0120000000e+05
    1.0719768703e-02    1.0120000000e+05
    1.0729735717e-02    1.0120000000e+05
    1.0739710182e-02    1.0120000000e+05
    1.0749979876e-02    1.0120000000e+05
    1.0759952478e-02    1.0120000000e+05
    1.0769925080e-02    1.0120000000e+05
    1.0779902339e-02    1.0120000000e+05
    1.0789885186e-02    1.0120000000e+05
    1.0799868964e-02    1.0120000000e+05
    1.0809854604e-02    1.0120000000e+05
    1.0819840245e-02    1.0120000000e+05
    1.0829829611e-02    1.0120000000e+05
    1.0839823633e-02    1.0120000000e+05
    1.0849818587e-02    1.0120000000e+05
    1.0859818198e-02    1.0120000000e+05
    1.0869823396e-02    1.0120000000e+05
    1.0879831389e-02    1.0120000000e+05
    1.0889838450e-02    1.0120000000e+05
    1.0899844579e-02    1.0120000000e+05
    1.0909857228e-02    1.0120000000e+05
    1.0919877328e-02    1.0120000000e+05
    1.0929899290e-02    1.0120000000e+05
    1.0939920321e-02    1.0120000000e+05
    1.0949940421e-02    1.0120000000e+05
    1.0959963314e-02    1.0120000000e+05
    1.0969994590e-02    1.0120000000e+05
    1.0979738086e-02    1.0120000000e+05
    1.0989778675e-02    1.0120000000e+05
    1.0999819264e-02    1.0120000000e+05
    1.1009861715e-02    1.0120000000e+05
    1.1019906960e-02    1.0120000000e+05
    1.1029955000e-02    1.0120000000e+05
    1.1039715260e-02    1.0120000000e+05
    1.1049777269e-02    1.0120000000e+05
    1.1059838347e-02    1.0120000000e+05
    1.1069900356e-02    1.0120000000e+05
    1.1079966091e-02    1.0120000000e+05
    1.1089740321e-02    1.0120000000e+05
    1.1099815369e-02    1.0120000000e+05
    1.1109896936e-02    1.0120000000e+05
    1.1119977571e-02    1.0120000000e+05
    1.1129757389e-02    1.0120000000e+05
    1.1139839888e-02    1.0120000000e+05
    1.1149931699e-02    1.0120000000e+05
    1.1159732006e-02    1.0120000000e+05
    1.1169833131e-02    1.0120000000e+05
    1.1179935187e-02    1.0120000000e+05
    1.1189738289e-02    1.0120000000e+05
    1.1199840344e-02    1.0120000000e+05
    1.1209950782e-02    1.0120000000e+05
    1.1219771579e-02    1.0120000000e+05
    1.1229890399e-02    1.0120000000e+05
    1.1239713058e-02    1.0120000000e+05
    1.1249832809e-02    1.0120000000e+05
    1.1259951629e-02    1.0120000000e+05
    1.1269777082e-02    1.0120000000e+05
    1.1279910803e-02    1.0120000000e+05
    1.1289752088e-02    1.0120000000e+05
    1.1299887672e-02    1.0120000000e+05
    1.1309728958e-02    1.0120000000e+05
    1.1319871061e-02    1.0120000000e+05
    1.1329716071e-02    1.0120000000e+05
    1.1339868419e-02    1.0120000000e+05
    1.1349728331e-02    1.0120000000e+05
    1.1359883472e-02    1.0120000000e+05
    1.1369740590e-02    1.0120000000e+05
    1.1379902251e-02    1.0120000000e+05
    1.1389773339e-02    1.0120000000e+05
    1.1399943382e-02    1.0120000000e+05
    1.1409819126e-02    1.0120000000e+05
    1.1419996619e-02    1.0120000000e+05
    1.1429873295e-02    1.0120000000e+05
    1.1439752765e-02    1.0120000000e+05
    1.1449939571e-02    1.0120000000e+05
    1.1459835805e-02    1.0120000000e+05
    1.1469731107e-02    1.0120000000e+05
    1.1479928158e-02    1.0120000000e+05
    1.1489821598e-02    1.0120000000e+05
    1.1499714106e-02    1.0120000000e+05
    1.1509913951e-02    1.0120000000e+05
    1.1519826017e-02    1.0120000000e+05
    1.1529743671e-02    1.0120000000e+05
    1.1539960280e-02    1.0120000000e+05
    1.1549877003e-02    1.0120000000e+05
    1.1559793726e-02    1.0120000000e+05
    1.1569706723e-02    1.0120000000e+05
    1.1579929851e-02    1.0120000000e+05
    1.1589860544e-02    1.0120000000e+05
    1.1599795893e-02    1.0120000000e+05
    1.1609735899e-02    1.0120000000e+05
    1.1619979516e-02    1.0120000000e+05
    1.1629923247e-02    1.0120000000e+05
    1.1639866978e-02    1.0120000000e+05
    1.1649811640e-02    1.0120000000e+05
    1.1659760959e-02    1.0120000000e+05
    1.1669709347e-02    1.0120000000e+05
    1.1679964140e-02    1.0120000000e+05
    1.1689924635e-02    1.0120000000e+05
    1.1699884199e-02    1.0120000000e+05
    1.1709843762e-02    1.0120000000e+05
    1.1719806120e-02    1.0120000000e+05
    1.1729768477e-02    1.0120000000e+05
    1.1739726178e-02    1.0120000000e+05
    1.1749982834e-02    1.0120000000e+05
    1.1759936810e-02    1.0120000000e+05
    1.1769883335e-02    1.0120000000e+05
    1.1779821478e-02    1.0120000000e+05
    1.1789752170e-02    1.0120000000e+05
    1.1799977161e-02    1.0120000000e+05
    1.1809893884e-02    1.0120000000e+05
    1.1819804087e-02    1.0120000000e+05
    1.1829709634e-02    1.0120000000e+05
    1.1839964427e-02    1.0120000000e+05
    1.1849813163e-02    1.0120000000e+05
    1.1859860271e-02    1.0120000000e+05
    1.1869782582e-02    1.0120000000e+05
    1.1879888363e-02    1.0120000000e+05
    1.1889840476e-02    1.0120000000e+05
    1.1899960227e-02    1.0120000000e+05
    1.1909896508e-02    1.0120000000e+05
    1.1919979006e-02    1.0120000000e+05
    1.1929836124e-02    1.0120000000e+05
    1.1939804070e-02    1.0120000000e+05
    1.1949849315e-02    1.0120000000e+05
    1.1959932745e-02    1.0120000000e+05
    1.1969893239e-02    1.0120000000e+05
    1.1979858391e-02    1.0120000000e+05
    1.1989833787e-02    1.0120000000e+05
    1.1999827810e-02    1.0120000000e+05
    1.2009859085e-02    1.0120000000e+05
    1.2019924819e-02    1.0120000000e+05
    1.2029696256e-02    1.0120000000e+05
    1.2039780617e-02    1.0120000000e+05
    1.2049872428e-02    1.0120000000e+05
    1.2059971690e-02    1.0120000000e+05
    1.2069771998e-02    1.0120000000e+05
    1.2079884298e-02    1.0120000000e+05
    1.2089694850e-02    1.0120000000e+05
    1.2099816464e-02    1.0120000000e+05
    1.2109942734e-02    1.0120000000e+05
    1.2119766325e-02    1.0120000000e+05
    1.2129899114e-02    1.0120000000e+05
    1.2139727362e-02    1.0120000000e+05
    1.2149864808e-02    1.0120000000e+05
    1.2159695849e-02    1.0120000000e+05
    1.2169835158e-02    1.0120000000e+05
    1.2179975398e-02    1.0120000000e+05
    1.2189808302e-02    1.0120000000e+05
    1.2199949473e-02    1.0120000000e+05
    1.2209782377e-02    1.0120000000e+05
    1.2219922617e-02    1.0120000000e+05
    1.2229754589e-02    1.0120000000e+05
    1.2239894830e-02    1.0120000000e+05
    1.2249727733e-02    1.0120000000e+05
    1.2259867042e-02    1.0120000000e+05
    1.2269699015e-02    1.0120000000e+05
    1.2279838324e-02    1.0120000000e+05
    1.2289976701e-02    1.0120000000e+05
    1.2299808674e-02    1.0120000000e+05
    1.2309947051e-02    1.0120000000e+05
    1.2319778092e-02    1.0120000000e+05
    1.2329916470e-02    1.0120000000e+05
    1.2339746580e-02    1.0120000000e+05
    1.2349884026e-02    1.0120000000e+05
    1.2359714136e-02    1.0120000000e+05
    1.2369850650e-02    1.0120000000e+05
    1.2379987165e-02    1.0120000000e+05
    1.2389816344e-02    1.0120000000e+05
    1.2399951927e-02    1.0120000000e+05
    1.2409781106e-02    1.0120000000e+05
    1.2419915758e-02    1.0120000000e+05
    1.2429744005e-02    1.0120000000e+05
    1.2439878657e-02    1.0120000000e+05
    1.2449705973e-02    1.0120000000e+05
    1.2459839694e-02    1.0120000000e+05
    1.2469973415e-02    1.0120000000e+05
    1.2479799800e-02    1.0120000000e+05
    1.2489932589e-02    1.0120000000e+05
    1.2499758974e-02    1.0120000000e+05
    1.2509890832e-02    1.0120000000e+05
    1.2519716285e-02    1.0120000000e+05
    1.2529848143e-02    1.0120000000e+05
    1.2539979070e-02    1.0120000000e+05
    1.2549803592e-02    1.0120000000e+05
    1.2559934519e-02    1.0120000000e+05
    1.2569758110e-02    1.0120000000e+05
    1.2579889037e-02    1.0120000000e+05
    1.2589711696e-02    1.0120000000e+05
    1.2599841692e-02    1.0120000000e+05
    1.2609971687e-02    1.0120000000e+05
    1.2619794346e-02    1.0120000000e+05
    1.2629923411e-02    1.0120000000e+05
    1.2639745139e-02    1.0120000000e+05
    1.2649874203e-02    1.0120000000e+05
    1.2659695931e-02    1.0120000000e+05
    1.2669824064e-02    1.0120000000e+05
    1.2679953128e-02    1.0120000000e+05
    1.2689773925e-02    1.0120000000e+05
    1.2699902058e-02    1.0120000000e+05
    1.2709722854e-02    1.0120000000e+05
    1.2719850987e-02    1.0120000000e+05
    1.2729979120e-02    1.0120000000e+05
    1.2739799917e-02    1.0120000000e+05
    1.2749927118e-02    1.0120000000e+05
    1.2759747915e-02    1.0120000000e+05
    1.2769875117e-02    1.0120000000e+05
    1.2779695913e-02    1.0120000000e+05
    1.2789823115e-02    1.0120000000e+05
    1.2799950317e-02    1.0120000000e+05
    1.2809770182e-02    1.0120000000e+05
    1.2819898315e-02    1.0120000000e+05
    1.2829720974e-02    1.0120000000e+05
    1.2839853764e-02    1.0120000000e+05
    1.2849989347e-02    1.0120000000e+05
    1.2859820388e-02    1.0120000000e+05
    1.2869959697e-02    1.0120000000e+05
    1.2879791670e-02    1.0120000000e+05
    1.2889931910e-02    1.0120000000e+05
    1.2899763882e-02    1.0120000000e+05
    1.2909904122e-02    1.0120000000e+05
    1.2919737026e-02    1.0120000000e+05
    1.2929879129e-02    1.0120000000e+05
    1.2939714827e-02    1.0120000000e+05
    1.2949858792e-02    1.0120000000e+05
    1.2959697284e-02    1.0120000000e+05
    1.2969844043e-02    1.0120000000e+05
    1.2979991734e-02    1.0120000000e+05
    1.2989833020e-02    1.0120000000e+05
    1.2999983504e-02    1.0120000000e+05
    1.3009826653e-02    1.0120000000e+05
    1.3019979000e-02    1.0120000000e+05
    1.3029825874e-02    1.0120000000e+05
    1.3039980084e-02    1.0120000000e+05
    1.3049828820e-02    1.0120000000e+05
    1.3059984893e-02    1.0120000000e+05
    1.3069835491e-02    1.0120000000e+05
    1.3079994358e-02    1.0120000000e+05
    1.3089845888e-02    1.0120000000e+05
    1.3099698350e-02    1.0120000000e+05
    1.3109860010e-02    1.0120000000e+05
    1.3119714335e-02    1.0120000000e+05
    1.3129876927e-02    1.0120000000e+05
    1.3139733113e-02    1.0120000000e+05
    1.3149896637e-02    1.0120000000e+05
    1.3159752823e-02    1.0120000000e+05
    1.3169918209e-02    1.0120000000e+05
    1.3179776259e-02    1.0120000000e+05
    1.3189941645e-02    1.0120000000e+05
    1.3199800625e-02    1.0120000000e+05
    1.3209966943e-02    1.0120000000e+05
    1.3219826855e-02    1.0120000000e+05
    1.3229994103e-02    1.0120000000e+05
    1.3239854015e-02    1.0120000000e+05
    1.3249713928e-02    1.0120000000e+05
    1.3259882107e-02    1.0120000000e+05
    1.3269742951e-02    1.0120000000e+05
    1.3279912062e-02    1.0120000000e+05
    1.3289772905e-02    1.0120000000e+05
    1.3299942948e-02    1.0120000000e+05
    1.3309804723e-02    1.0120000000e+05
    1.3319974765e-02    1.0120000000e+05
    1.3329836540e-02    1.0120000000e+05
    1.3339699246e-02    1.0120000000e+05
    1.3349869289e-02    1.0120000000e+05
    1.3359731995e-02    1.0120000000e+05
    1.3369903900e-02    1.0120000000e+05
    1.3379767537e-02    1.0120000000e+05
    1.3389939442e-02    1.0120000000e+05
    1.3399803080e-02    1.0120000000e+05
    1.3409975916e-02    1.0120000000e+05
    1.3419839554e-02    1.0120000000e+05
    1.3429704122e-02    1.0120000000e+05
    1.3439877890e-02    1.0120000000e+05
    1.3449742459e-02    1.0120000000e+05
    1.3459916227e-02    1.0120000000e+05
    1.3469782658e-02    1.0120000000e+05
    1.3479956426e-02    1.0120000000e+05
    1.3489822857e-02    1.0120000000e+05
    1.3499998488e-02    1.0120000000e+05
    1.3509865850e-02    1.0120000000e+05
    1.3519733213e-02    1.0120000000e+05
    1.3529908843e-02    1.0120000000e+05
    1.3539777137e-02    1.0120000000e+05
    1.3549954630e-02    1.0120000000e+05
    1.3559823856e-02    1.0120000000e+05
    1.3569693081e-02    1.0120000000e+05
    1.3579871505e-02    1.0120000000e+05
    1.3589741662e-02    1.0120000000e+05
    1.3599921018e-02    1.0120000000e+05
    1.3609792106e-02    1.0120000000e+05
    1.3619972393e-02    1.0120000000e+05
    1.3629844412e-02    1.0120000000e+05
    1.3639717363e-02    1.0120000000e+05
    1.3649898581e-02    1.0120000000e+05
    1.3659772463e-02    1.0120000000e+05
    1.3669955544e-02    1.0120000000e+05
    1.3679830357e-02    1.0120000000e+05
    1.3689705171e-02    1.0120000000e+05
    1.3699889183e-02    1.0120000000e+05
    1.3709765859e-02    1.0120000000e+05
    1.3719951734e-02    1.0120000000e+05
    1.3729829341e-02    1.0120000000e+05
    1.3739706948e-02    1.0120000000e+05
    1.3749894686e-02    1.0120000000e+05
    1.3759774156e-02    1.0120000000e+05
    1.3769962825e-02    1.0120000000e+05
    1.3779843226e-02    1.0120000000e+05
    1.3789723627e-02    1.0120000000e+05
    1.3799914159e-02    1.0120000000e+05
    1.3809796423e-02    1.0120000000e+05
    1.3819988817e-02    1.0120000000e+05
    1.3829872012e-02    1.0120000000e+05
    1.3839757070e-02    1.0120000000e+05
    1.3849950396e-02    1.0120000000e+05
    1.3859836385e-02    1.0120000000e+05
    1.3869722374e-02    1.0120000000e+05
    1.3879917562e-02    1.0120000000e+05
    1.3889805414e-02    1.0120000000e+05
    1.3899693266e-02    1.0120000000e+05
    1.3909891248e-02    1.0120000000e+05
    1.3919780962e-02    1.0120000000e+05
    1.3929979876e-02    1.0120000000e+05
    1.3939870521e-02    1.0120000000e+05
    1.3949762098e-02    1.0120000000e+05
    1.3959963806e-02    1.0120000000e+05
    1.3969856314e-02    1.0120000000e+05
    1.3979749754e-02    1.0120000000e+05
    1.3989953324e-02    1.0120000000e+05
    1.3999848627e-02    1.0120000000e+05
    1.4009743929e-02    1.0120000000e+05
    1.4019950293e-02    1.0120000000e+05
    1.4029847458e-02    1.0120000000e+05
    1.4039745554e-02    1.0120000000e+05
    1.4049952850e-02    1.0120000000e+05
    1.4059852809e-02    1.0120000000e+05
    1.4069752768e-02    1.0120000000e+05
    1.4079962857e-02    1.0120000000e+05
    1.4089863747e-02    1.0120000000e+05
    1.4099765569e-02    1.0120000000e+05
    1.4109978452e-02    1.0120000000e+05
    1.4119882137e-02    1.0120000000e+05
    1.4129785821e-02    1.0120000000e+05
    1.4139691368e-02    1.0120000000e+05
    1.4149906114e-02    1.0120000000e+05
    1.4159812592e-02    1.0120000000e+05
    1.4169720002e-02    1.0120000000e+05
    1.4179937541e-02    1.0120000000e+05
    1.4189845882e-02    1.0120000000e+05
    1.4199755155e-02    1.0120000000e+05
    1.4209974557e-02    1.0120000000e+05
    1.4219885692e-02    1.0120000000e+05
    1.4229797758e-02    1.0120000000e+05
    1.4239709824e-02    1.0120000000e+05
    1.4249932021e-02    1.0120000000e+05
    1.4259845950e-02    1.0120000000e+05
    1.4269759879e-02    1.0120000000e+05
    1.4279984869e-02    1.0120000000e+05
    1.4289900661e-02    1.0120000000e+05
    1.4299817383e-02    1.0120000000e+05
    1.4309735037e-02    1.0120000000e+05
    1.4319962822e-02    1.0120000000e+05
    1.4329881407e-02    1.0120000000e+05
    1.4339800924e-02    1.0120000000e+05
    1.4349721372e-02    1.0120000000e+05
    1.4359951951e-02    1.0120000000e+05
    1.4369873330e-02    1.0120000000e+05
    1.4379795641e-02    1.0120000000e+05
    1.4389717951e-02    1.0120000000e+05
    1.4399952255e-02    1.0120000000e+05
    1.4409876429e-02    1.0120000000e+05
    1.4419801533e-02    1.0120000000e+05
    1.4429726638e-02    1.0120000000e+05
    1.4439963736e-02    1.0120000000e+05
    1.4449890703e-02    1.0120000000e+05
    1.4459818602e-02    1.0120000000e+05
    1.4469746500e-02    1.0120000000e+05
    1.4479985461e-02    1.0120000000e+05
    1.4489915222e-02    1.0120000000e+05
    1.4499845915e-02    1.0120000000e+05
    1.4509776607e-02    1.0120000000e+05
    1.4519708231e-02    1.0120000000e+05
    1.4529950917e-02    1.0120000000e+05
    1.4539883472e-02    1.0120000000e+05
    1.4549816959e-02    1.0120000000e+05
    1.4559751377e-02    1.0120000000e+05
    1.4569996856e-02    1.0120000000e+05
    1.4579932205e-02    1.0120000000e+05
    1.4589867555e-02    1.0120000000e+05
    1.4599804766e-02    1.0120000000e+05
    1.4609741047e-02    1.0120000000e+05
    1.4619989321e-02    1.0120000000e+05
    1.4629927464e-02    1.0120000000e+05
    1.4639866538e-02    1.0120000000e+05
    1.4649806544e-02    1.0120000000e+05
    1.4659746550e-02    1.0120000000e+05
    1.4669997618e-02    1.0120000000e+05
    1.4679938555e-02    1.0120000000e+05
    1.4689879492e-02    1.0120000000e+05
    1.4699821360e-02    1.0120000000e+05
    1.4709764160e-02    1.0120000000e+05
    1.4719706960e-02    1.0120000000e+05
    1.4729961753e-02    1.0120000000e+05
    1.4739905484e-02    1.0120000000e+05
    1.4749850146e-02    1.0120000000e+05
    1.4759795740e-02    1.0120000000e+05
    1.4769741334e-02    1.0120000000e+05
    1.4779997990e-02    1.0120000000e+05
    1.4789944515e-02    1.0120000000e+05
    1.4799891040e-02    1.0120000000e+05
    1.4809838496e-02    1.0120000000e+05
    1.4819786884e-02    1.0120000000e+05
    1.4829735272e-02    1.0120000000e+05
    1.4839994721e-02    1.0120000000e+05
    1.4849944040e-02    1.0120000000e+05
    1.4859893359e-02    1.0120000000e+05
    1.4869843610e-02    1.0120000000e+05
    1.4879793860e-02    1.0120000000e+05
    1.4889744110e-02    1.0120000000e+05
    1.4899695292e-02    1.0120000000e+05
    1.4909958467e-02    1.0120000000e+05
    1.4919909649e-02    1.0120000000e+05
    1.4929861762e-02    1.0120000000e+05
    1.4939814806e-02    1.0120000000e+05
    1.4949767850e-02    1.0120000000e+05
    1.4959720895e-02    1.0120000000e+05
    1.4969985932e-02    1.0120000000e+05
    1.4979939908e-02    1.0120000000e+05
    1.4989893883e-02    1.0120000000e+05
    1.4999847859e-02    1.0120000000e+05
    1.5009802766e-02    1.0120000000e+05
    1.5019758604e-02    1.0120000000e+05
    1.5029713511e-02    1.0120000000e+05
    1.5039980412e-02    1.0120000000e+05
    1.5049936250e-02    1.0120000000e+05
    1.5059893019e-02    1.0120000000e+05
    1.5069849789e-02    1.0120000000e+05
    1.5079806559e-02    1.0120000000e+05
    1.5089763328e-02    1.0120000000e+05
    1.5099720098e-02    1.0120000000e+05
    1.5109988861e-02    1.0120000000e+05
    1.5119946562e-02    1.0120000000e+05
    1.5129904263e-02    1.0120000000e+05
    1.5139861964e-02    1.0120000000e+05
    1.5149820596e-02    1.0120000000e+05
    1.5159779228e-02    1.0120000000e+05
    1.5169737861e-02    1.0120000000e+05
    1.5179696493e-02    1.0120000000e+05
    1.5189967118e-02    1.0120000000e+05
    1.5199926682e-02    1.0120000000e+05
    1.5209886245e-02    1.0120000000e+05
    1.5219845809e-02    1.0120000000e+05
    1.5229805373e-02    1.0120000000e+05
    1.5239765868e-02    1.0120000000e+05
    1.5249725431e-02    1.0120000000e+05
    1.5259996988e-02    1.0120000000e+05
    1.5269956551e-02    1.0120000000e+05
    1.5279917046e-02    1.0120000000e+05
    1.5289877541e-02    1.0120000000e+05
    1.5299838036e-02    1.0120000000e+05
    1.5309798531e-02    1.0120000000e+05
    1.5319759026e-02    1.0120000000e+05
    1.5329719521e-02    1.0120000000e+05
    1.5339992009e-02    1.0120000000e+05
    1.5349952504e-02    1.0120000000e+05
    1.5359913930e-02    1.0120000000e+05
    1.5369875357e-02    1.0120000000e+05
    1.5379836783e-02    1.0120000000e+05
    1.5389798209e-02    1.0120000000e+05
    1.5399759635e-02    1.0120000000e+05
    1.5409721062e-02    1.0120000000e+05
    1.5419993550e-02    1.0120000000e+05
    1.5429954976e-02    1.0120000000e+05
    1.5439916402e-02    1.0120000000e+05
    1.5449878760e-02    1.0120000000e+05
    1.5459840186e-02    1.0120000000e+05
    1.5469801612e-02    1.0120000000e+05
    1.5479763038e-02    1.0120000000e+05
    1.5489724465e-02    1.0120000000e+05
    1.5499996953e-02    1.0120000000e+05
    1.5509958379e-02    1.0120000000e+05
    1.5519919805e-02    1.0120000000e+05
    1.5529881231e-02    1.0120000000e+05
    1.5539842658e-02    1.0120000000e+05
    1.5549804084e-02    1.0120000000e+05
    1.5559765510e-02    1.0120000000e+05
    1.5569726937e-02    1.0120000000e+05
    1.5579999425e-02    1.0120000000e+05
    1.5589960851e-02    1.0120000000e+05
    1.5599922277e-02    1.0120000000e+05
    1.5609882772e-02    1.0120000000e+05
    1.5619844198e-02    1.0120000000e+05
    1.5629805624e-02    1.0120000000e+05
    1.5639765188e-02    1.0120000000e+05
    1.5649726614e-02    1.0120000000e+05
    1.5659999102e-02    1.0120000000e+05
    1.5669960529e-02    1.0120000000e+05
    1.5679920092e-02    1.0120000000e+05
    1.5689881518e-02    1.0120000000e+05
    1.5699841082e-02    1.0120000000e+05
    1.5709802508e-02    1.0120000000e+05
    1.5719762072e-02    1.0120000000e+05
    1.5729723498e-02    1.0120000000e+05
    1.5739994124e-02    1.0120000000e+05
    1.5749955550e-02    1.0120000000e+05
    1.5759915113e-02    1.0120000000e+05
    1.5769874677e-02    1.0120000000e+05
    1.5779834241e-02    1.0120000000e+05
    1.5789795667e-02    1.0120000000e+05
    1.5799755231e-02    1.0120000000e+05
    1.5809714794e-02    1.0120000000e+05
    1.5819985420e-02    1.0120000000e+05
    1.5829944983e-02    1.0120000000e+05
    1.5839904547e-02    1.0120000000e+05
    1.5849864110e-02    1.0120000000e+05
    1.5859821811e-02    1.0120000000e+05
    1.5869781375e-02    1.0120000000e+05
    1.5879740939e-02    1.0120000000e+05
    1.5889700502e-02    1.0120000000e+05
    1.5899969265e-02    1.0120000000e+05
    1.5909928828e-02    1.0120000000e+05
    1.5919888392e-02    1.0120000000e+05
    1.5929846093e-02    1.0120000000e+05
    1.5939805657e-02    1.0120000000e+05
    1.5949763358e-02    1.0120000000e+05
    1.5959721059e-02    1.0120000000e+05
    1.5969991684e-02    1.0120000000e+05
    1.5979949385e-02    1.0120000000e+05
    1.5989907086e-02    1.0120000000e+05
    1.5999864787e-02    1.0120000000e+05
    1.6009824350e-02    1.0120000000e+05
    1.6019782051e-02    1.0120000000e+05
    1.6029739752e-02    1.0120000000e+05
    1.6039697453e-02    1.0120000000e+05
    1.6049966216e-02    1.0120000000e+05
    1.6059923917e-02    1.0120000000e+05
    1.6069879755e-02    1.0120000000e+05
    1.6079837456e-02    1.0120000000e+05
    1.6089795157e-02    1.0120000000e+05
    1.6099752858e-02    1.0120000000e+05
    1.6109708697e-02    1.0120000000e+05
    1.6119977459e-02    1.0120000000e+05
    1.6129935160e-02    1.0120000000e+05
    1.6139890999e-02    1.0120000000e+05
    1.6149848700e-02    1.0120000000e+05
    1.6159804538e-02    1.0120000000e+05
    1.6169762239e-02    1.0120000000e+05
    1.6179719940e-02    1.0120000000e+05
    1.6189988703e-02    1.0120000000e+05
    1.6199946404e-02    1.0120000000e+05
    1.6209902242e-02    1.0120000000e+05
    1.6219859943e-02    1.0120000000e+05
    1.6229819506e-02    1.0120000000e+05
    1.6239779070e-02    1.0120000000e+05
    1.6249738634e-02    1.0120000000e+05
    1.6259700060e-02    1.0120000000e+05
    1.6269972548e-02    1.0120000000e+05
    1.6279933974e-02    1.0120000000e+05
    1.6289897263e-02    1.0120000000e+05
    1.6299862415e-02    1.0120000000e+05
    1.6309829429e-02    1.0120000000e+05
    1.6319798306e-02    1.0120000000e+05
    1.6329769045e-02    1.0120000000e+05
    1.6339739785e-02    1.0120000000e+05
    1.6349710524e-02    1.0120000000e+05
    1.6359994188e-02    1.0120000000e+05
    1.6369966790e-02    1.0120000000e+05
    1.6379939392e-02    1.0120000000e+05
    1.6389911994e-02    1.0120000000e+05
    1.6399884596e-02    1.0120000000e+05
    1.6409859061e-02    1.0120000000e+05
    1.6419833526e-02    1.0120000000e+05
    1.6429809853e-02    1.0120000000e+05
    1.6439784318e-02    1.0120000000e+05
    1.6449760646e-02    1.0120000000e+05
    1.6459735110e-02    1.0120000000e+05
    1.6469711438e-02    1.0120000000e+05
    1.6479996964e-02    1.0120000000e+05
    1.6489971429e-02    1.0120000000e+05
    1.6499945894e-02    1.0120000000e+05
    1.6509920359e-02    1.0120000000e+05
    1.6519891098e-02    1.0120000000e+05
    1.6529861838e-02    1.0120000000e+05
    1.6539830714e-02    1.0120000000e+05
    1.6549795866e-02    1.0120000000e+05
    1.6559755430e-02    1.0120000000e+05
    1.6569709405e-02    1.0120000000e+05
    1.6579966992e-02    1.0120000000e+05
    1.6589906067e-02    1.0120000000e+05
    1.6599839553e-02    1.0120000000e+05
    1.6609769315e-02    1.0120000000e+05
    1.6619695351e-02    1.0120000000e+05
    1.6629932448e-02    1.0120000000e+05
    1.6639886424e-02    1.0120000000e+05
    1.6649788246e-02    1.0120000000e+05
    1.6659839079e-02    1.0120000000e+05
    1.6669886187e-02    1.0120000000e+05
    1.6679935157e-02    1.0120000000e+05
    1.6689693555e-02    1.0120000000e+05
    1.6699776053e-02    1.0120000000e+05
    1.6709869727e-02    1.0120000000e+05
    1.6719970852e-02    1.0120000000e+05
    1.6729751602e-02    1.0120000000e+05
    1.6739865765e-02    1.0120000000e+05
    1.6749985516e-02    1.0120000000e+05
    1.6759783030e-02    1.0120000000e+05
    1.6769910231e-02    1.0120000000e+05
    1.6779715195e-02    1.0120000000e+05
    1.6789851710e-02    1.0120000000e+05
    1.6799991950e-02    1.0120000000e+05
    1.6809808090e-02    1.0120000000e+05
    1.6819953918e-02    1.0120000000e+05
    1.6829775646e-02    1.0120000000e+05
    1.6839927062e-02    1.0120000000e+05
    1.6849754378e-02    1.0120000000e+05
    1.6859909520e-02    1.0120000000e+05
    1.6869738698e-02    1.0120000000e+05
    1.6879899427e-02    1.0120000000e+05
    1.6889732331e-02    1.0120000000e+05
    1.6899894923e-02    1.0120000000e+05
    1.6909731552e-02    1.0120000000e+05
    1.6919897869e-02    1.0120000000e+05
    1.6929736361e-02    1.0120000000e+05
    1.6939904541e-02    1.0120000000e+05
    1.6949744895e-02    1.0120000000e+05
    1.6959914938e-02    1.0120000000e+05
    1.6969755292e-02    1.0120000000e+05
    1.6979927197e-02    1.0120000000e+05
    1.6989769414e-02    1.0120000000e+05
    1.6999941319e-02    1.0120000000e+05
    1.7009785399e-02    1.0120000000e+05
    1.7019957304e-02    1.0120000000e+05
    1.7029801384e-02    1.0120000000e+05
    1.7039973289e-02    1.0120000000e+05
    1.7049819231e-02    1.0120000000e+05
    1.7059991136e-02    1.0120000000e+05
    1.7069835216e-02    1.0120000000e+05
    1.7079681158e-02    1.0120000000e+05
    1.7089853063e-02    1.0120000000e+05
    1.7099697143e-02    1.0120000000e+05
    1.7109869048e-02    1.0120000000e+05
    1.7119714990e-02    1.0120000000e+05
    1.7129886895e-02    1.0120000000e+05
    1.7139730975e-02    1.0120000000e+05
    1.7149902880e-02    1.0120000000e+05
    1.7159746960e-02    1.0120000000e+05
    1.7169918865e-02    1.0120000000e+05
    1.7179762945e-02    1.0120000000e+05
    1.7189934850e-02    1.0120000000e+05
    1.7199778929e-02    1.0120000000e+05
    1.7209950835e-02    1.0120000000e+05
    1.7219794914e-02    1.0120000000e+05
    1.7229966819e-02    1.0120000000e+05
    1.7239809036e-02    1.0120000000e+05
    1.7249980941e-02    1.0120000000e+05
    1.7259825021e-02    1.0120000000e+05
    1.7269995064e-02    1.0120000000e+05
    1.7279839143e-02    1.0120000000e+05
    1.7289681360e-02    1.0120000000e+05
    1.7299853265e-02    1.0120000000e+05
    1.7309695482e-02    1.0120000000e+05
    1.7319867387e-02    1.0120000000e+05
    1.7329709604e-02    1.0120000000e+05
    1.7339879647e-02    1.0120000000e+05
    1.7349723727e-02    1.0120000000e+05
    1.7359893769e-02    1.0120000000e+05
    1.7369735986e-02    1.0120000000e+05
    1.7379906029e-02    1.0120000000e+05
    1.7389748245e-02    1.0120000000e+05
    1.7399918288e-02    1.0120000000e+05
    1.7409760505e-02    1.0120000000e+05
    1.7419930547e-02    1.0120000000e+05
    1.7429772764e-02    1.0120000000e+05
    1.7439942807e-02    1.0120000000e+05
    1.7449785024e-02    1.0120000000e+05
    1.7459955066e-02    1.0120000000e+05
    1.7469797283e-02    1.0120000000e+05
    1.7479967326e-02    1.0120000000e+05
    1.7489809543e-02    1.0120000000e+05
    1.7499977723e-02    1.0120000000e+05
    1.7509819940e-02    1.0120000000e+05
    1.7519989982e-02    1.0120000000e+05
    1.7529832199e-02    1.0120000000e+05
    1.7539674416e-02    1.0120000000e+05
    1.7549842596e-02    1.0120000000e+05
    1.7559684813e-02    1.0120000000e+05
    1.7569854856e-02    1.0120000000e+05
    1.7579697073e-02    1.0120000000e+05
    1.7589867115e-02    1.0120000000e+05
    1.7599709332e-02    1.0120000000e+05
    1.7609879375e-02    1.0120000000e+05
    1.7619721591e-02    1.0120000000e+05
    1.7629891634e-02    1.0120000000e+05
    1.7639733851e-02    1.0120000000e+05
    1.7649905756e-02    1.0120000000e+05
    1.7659747973e-02    1.0120000000e+05
    1.7669919878e-02    1.0120000000e+05
    1.7679763958e-02    1.0120000000e+05
    1.7689935863e-02    1.0120000000e+05
    1.7699778080e-02    1.0120000000e+05
    1.7709951848e-02    1.0120000000e+05
    1.7719795927e-02    1.0120000000e+05
    1.7729967833e-02    1.0120000000e+05
    1.7739811912e-02    1.0120000000e+05
    1.7749985680e-02    1.0120000000e+05
    1.7759831622e-02    1.0120000000e+05
    1.7769675702e-02    1.0120000000e+05
    1.7779849470e-02    1.0120000000e+05
    1.7789695412e-02    1.0120000000e+05
    1.7799869180e-02    1.0120000000e+05
    1.7809716985e-02    1.0120000000e+05
    1.7819890752e-02    1.0120000000e+05
    1.7829736695e-02    1.0120000000e+05
    1.7839912325e-02    1.0120000000e+05
    1.7849758267e-02    1.0120000000e+05
    1.7859933898e-02    1.0120000000e+05
    1.7869779840e-02    1.0120000000e+05
    1.7879955471e-02    1.0120000000e+05
    1.7889801413e-02    1.0120000000e+05
    1.7899977043e-02    1.0120000000e+05
    1.7909824848e-02    1.0120000000e+05
    1.7919672653e-02    1.0120000000e+05
    1.7929848284e-02    1.0120000000e+05
    1.7939694226e-02    1.0120000000e+05
    1.7949869856e-02    1.0120000000e+05
    1.7959717661e-02    1.0120000000e+05
    1.7969893292e-02    1.0120000000e+05
    1.7979741096e-02    1.0120000000e+05
    1.7989916727e-02    1.0120000000e+05
    1.7999764532e-02    1.0120000000e+05
    1.8009940162e-02    1.0120000000e+05
    1.8019787967e-02    1.0120000000e+05
    1.8029963598e-02    1.0120000000e+05
    1.8039811403e-02    1.0120000000e+05
    1.8049987033e-02    1.0120000000e+05
    1.8059834838e-02    1.0120000000e+05
    1.8069682643e-02    1.0120000000e+05
    1.8079858273e-02    1.0120000000e+05
    1.8089706078e-02    1.0120000000e+05
    1.8099883571e-02    1.0120000000e+05
    1.8109731376e-02    1.0120000000e+05
    1.8119907007e-02    1.0120000000e+05
    1.8129754812e-02    1.0120000000e+05
    1.8139930442e-02    1.0120000000e+05
    1.8149778247e-02    1.0120000000e+05
    1.8159955740e-02    1.0120000000e+05
    1.8169803545e-02    1.0120000000e+05
    1.8179979175e-02    1.0120000000e+05
    1.8189826980e-02    1.0120000000e+05
    1.8199674785e-02    1.0120000000e+05
    1.8209852278e-02    1.0120000000e+05
    1.8219700083e-02    1.0120000000e+05
    1.8229875714e-02    1.0120000000e+05
    1.8239725381e-02    1.0120000000e+05
    1.8249901012e-02    1.0120000000e+05
    1.8259748816e-02    1.0120000000e+05
    1.8269926310e-02    1.0120000000e+05
    1.8279774114e-02    1.0120000000e+05
    1.8289951608e-02    1.0120000000e+05
    1.8299799412e-02    1.0120000000e+05
    1.8309975043e-02    1.0120000000e+05
    1.8319824710e-02    1.0120000000e+05
    1.8329672515e-02    1.0120000000e+05
    1.8339850008e-02    1.0120000000e+05
    1.8349697813e-02    1.0120000000e+05
    1.8359875306e-02    1.0120000000e+05
    1.8369723111e-02    1.0120000000e+05
    1.8379900604e-02    1.0120000000e+05
    1.8389748409e-02    1.0120000000e+05
    1.8399925902e-02    1.0120000000e+05
    1.8409775570e-02    1.0120000000e+05
    1.8419953063e-02    1.0120000000e+05
    1.8429802731e-02    1.0120000000e+05
    1.8439980224e-02    1.0120000000e+05
    1.8449829891e-02    1.0120000000e+05
    1.8459679559e-02    1.0120000000e+05
    1.8469857052e-02    1.0120000000e+05
    1.8479708582e-02    1.0120000000e+05
    1.8489886075e-02    1.0120000000e+05
    1.8499735743e-02    1.0120000000e+05
    1.8509915099e-02    1.0120000000e+05
    1.8519764766e-02    1.0120000000e+05
    1.8529944122e-02    1.0120000000e+05
    1.8539793789e-02    1.0120000000e+05
    1.8549973145e-02    1.0120000000e+05
    1.8559822813e-02    1.0120000000e+05
    1.8569674343e-02    1.0120000000e+05
    1.8579853699e-02    1.0120000000e+05
    1.8589705229e-02    1.0120000000e+05
    1.8599884585e-02    1.0120000000e+05
    1.8609734252e-02    1.0120000000e+05
    1.8619915470e-02    1.0120000000e+05
    1.8629767001e-02    1.0120000000e+05
    1.8639946356e-02    1.0120000000e+05
    1.8649797887e-02    1.0120000000e+05
    1.8659979105e-02    1.0120000000e+05
    1.8669830635e-02    1.0120000000e+05
    1.8679682165e-02    1.0120000000e+05
    1.8689863384e-02    1.0120000000e+05
    1.8699714914e-02    1.0120000000e+05
    1.8709896132e-02    1.0120000000e+05
    1.8719749525e-02    1.0120000000e+05
    1.8729930744e-02    1.0120000000e+05
    1.8739782274e-02    1.0120000000e+05
    1.8749963492e-02    1.0120000000e+05
    1.8759816885e-02    1.0120000000e+05
    1.8769999966e-02    1.0120000000e+05
    1.8779853359e-02    1.0120000000e+05
    1.8789706752e-02    1.0120000000e+05
    1.8799887970e-02    1.0120000000e+05
    1.8809741363e-02    1.0120000000e+05
    1.8819924444e-02    1.0120000000e+05
    1.8829777837e-02    1.0120000000e+05
    1.8839960918e-02    1.0120000000e+05
    1.8849816173e-02    1.0120000000e+05
    1.8859999254e-02    1.0120000000e+05
    1.8869854510e-02    1.0120000000e+05
    1.8879709765e-02    1.0120000000e+05
    1.8889892846e-02    1.0120000000e+05
    1.8899748102e-02    1.0120000000e+05
    1.8909931183e-02    1.0120000000e+05
    1.8919788301e-02    1.0120000000e+05
    1.8929971382e-02    1.0120000000e+05
    1.8939828500e-02    1.0120000000e+05
    1.8949683756e-02    1.0120000000e+05
    1.8959868699e-02    1.0120000000e+05
    1.8969725817e-02    1.0120000000e+05
    1.8979910761e-02    1.0120000000e+05
    1.8989767879e-02    1.0120000000e+05
    1.8999952823e-02    1.0120000000e+05
    1.9009809941e-02    1.0120000000e+05
    1.9019996747e-02    1.0120000000e+05
    1.9029853866e-02    1.0120000000e+05
    1.9039710984e-02    1.0120000000e+05
    1.9049897790e-02    1.0120000000e+05
    1.9059756771e-02    1.0120000000e+05
    1.9069943577e-02    1.0120000000e+05
    1.9079802558e-02    1.0120000000e+05
    1.9089989364e-02    1.0120000000e+05
    1.9099848345e-02    1.0120000000e+05
    1.9109707326e-02    1.0120000000e+05
    1.9119894132e-02    1.0120000000e+05
    1.9129753113e-02    1.0120000000e+05
    1.9139941782e-02    1.0120000000e+05
    1.9149802625e-02    1.0120000000e+05
    1.9159991294e-02    1.0120000000e+05
    1.9169850275e-02    1.0120000000e+05
    1.9179711118e-02    1.0120000000e+05
    1.9189899787e-02    1.0120000000e+05
    1.9199760631e-02    1.0120000000e+05
    1.9209949300e-02    1.0120000000e+05
    1.9219810143e-02    1.0120000000e+05
    1.9229672849e-02    1.0120000000e+05
    1.9239861518e-02    1.0120000000e+05
    1.9249724224e-02    1.0120000000e+05
    1.9259914756e-02    1.0120000000e+05
    1.9269775599e-02    1.0120000000e+05
    1.9279966131e-02    1.0120000000e+05
    1.9289828837e-02    1.0120000000e+05
    1.9299691543e-02    1.0120000000e+05
    1.9309882075e-02    1.0120000000e+05
    1.9319744781e-02    1.0120000000e+05
    1.9329937175e-02    1.0120000000e+05
    1.9339799881e-02    1.0120000000e+05
    1.9349992275e-02    1.0120000000e+05
    1.9359854981e-02    1.0120000000e+05
    1.9369719550e-02    1.0120000000e+05
    1.9379911944e-02    1.0120000000e+05
    1.9389776513e-02    1.0120000000e+05
    1.9399968907e-02    1.0120000000e+05
    1.9409833476e-02    1.0120000000e+05
    1.9419698045e-02    1.0120000000e+05
    1.9429890439e-02    1.0120000000e+05
    1.9439755008e-02    1.0120000000e+05
[...]
    1.3513997197e-01    1.0120777344e+05
    1.3514994085e-01    1.0120777344e+05
    1.3515992463e-01    1.0120777344e+05
    1.3516989350e-01    1.0120777344e+05
    1.3517986238e-01    1.0120775781e+05
    1.3518983126e-01    1.0120775781e+05
    1.3519980013e-01    1.0120775000e+05
    1.3520978391e-01    1.0120775000e+05
    1.3521975279e-01    1.0120774219e+05
    1.3522972167e-01    1.0120774219e+05
    1.3523969054e-01    1.0120774219e+05
    1.3525000215e-01    1.0120772656e+05
    1.3525997102e-01    1.0120772656e+05
    1.3526993990e-01    1.0120772656e+05
    1.3527990878e-01    1.0120772656e+05
    1.3528989255e-01    1.0120771875e+05
    1.3529986143e-01    1.0120771875e+05
    1.3530983031e-01    1.0120771875e+05
    1.3531979918e-01    1.0120771094e+05
    1.3532976806e-01    1.0120771094e+05
    1.3533975184e-01    1.0120771094e+05
    1.3534972072e-01    1.0120771094e+05
    1.3535968959e-01    1.0120769531e+05
    1.3536998630e-01    1.0120769531e+05
    1.3537997007e-01    1.0120769531e+05
    1.3538993895e-01    1.0120768750e+05
    1.3539990783e-01    1.0120768750e+05
    1.3540987670e-01    1.0120767969e+05
    1.3541984558e-01    1.0120767969e+05
    1.3542982936e-01    1.0120766406e+05
    1.3543979824e-01    1.0120766406e+05
    1.3544976711e-01    1.0120766406e+05
    1.3545973599e-01    1.0120766406e+05
    1.3546971977e-01    1.0120766406e+05
    1.3547968864e-01    1.0120765625e+05
    1.3548998535e-01    1.0120765625e+05
    1.3549995422e-01    1.0120765625e+05
    1.3550993800e-01    1.0120764844e+05
    1.3551990688e-01    1.0120764844e+05
    1.3552987576e-01    1.0120764844e+05
    1.3553984463e-01    1.0120764844e+05
    1.3554981351e-01    1.0120763281e+05
    1.3555979729e-01    1.0120763281e+05
    1.3556976616e-01    1.0120763281e+05
    1.3557973504e-01    1.0120762500e+05
    1.3558970392e-01    1.0120762500e+05
    1.3559967279e-01    1.0120761719e+05
    1.3560998440e-01    1.0120761719e+05
    1.3561995327e-01    1.0120761719e+05
    1.3562992215e-01    1.0120760156e+05
    1.3563990593e-01    1.0120760156e+05
    1.3564987481e-01    1.0120760156e+05
    1.3565984368e-01    1.0120760156e+05
    1.3566981256e-01    1.0120759375e+05
    1.3567978144e-01    1.0120759375e+05
    1.3568976521e-01    1.0120759375e+05
    1.3569973409e-01    1.0120758594e+05
    1.3570970297e-01    1.0120758594e+05
    1.3571967185e-01    1.0120758594e+05
    1.3572998345e-01    1.0120758594e+05
    1.3573995233e-01    1.0120758594e+05
    1.3574992120e-01    1.0120757031e+05
    1.3575989008e-01    1.0120757031e+05
    1.3576987386e-01    1.0120756250e+05
    1.3577984273e-01    1.0120756250e+05
    1.3578981161e-01    1.0120756250e+05
    1.3579978049e-01    1.0120755469e+05
    1.3580974936e-01    1.0120755469e+05
    1.3581973314e-01    1.0120753906e+05
    1.3582970202e-01    1.0120753906e+05
    1.3583967090e-01    1.0120753906e+05
    1.3584998250e-01    1.0120753906e+05
    1.3585995138e-01    1.0120753906e+05
    1.3586992025e-01    1.0120753125e+05
    1.3587988913e-01    1.0120753125e+05
    1.3588985801e-01    1.0120752344e+05
    1.3589984179e-01    1.0120752344e+05
    1.3590981066e-01    1.0120752344e+05
    1.3591977954e-01    1.0120752344e+05
    1.3592974842e-01    1.0120752344e+05
    1.3593971729e-01    1.0120750781e+05
    1.3594970107e-01    1.0120750781e+05
    1.3595999777e-01    1.0120750781e+05
    1.3596996665e-01    1.0120750000e+05
    1.3597993553e-01    1.0120750000e+05
    1.3598991930e-01    1.0120749219e+05
    1.3599988818e-01    1.0120749219e+05
    1.3600985706e-01    1.0120749219e+05
    1.3601982594e-01    1.0120747656e+05
    1.3602979481e-01    1.0120747656e+05
    1.3603977859e-01    1.0120747656e+05
    1.3604974747e-01    1.0120747656e+05
    1.3605971634e-01    1.0120747656e+05
    1.3606968522e-01    1.0120746875e+05
    1.3607999682e-01    1.0120746875e+05
    1.3608996570e-01    1.0120746094e+05
    1.3609993458e-01    1.0120746094e+05
    1.3610990345e-01    1.0120746094e+05
    1.3611988723e-01    1.0120746094e+05
    1.3612985611e-01    1.0120746094e+05
    1.3613982499e-01    1.0120744531e+05
    1.3614979386e-01    1.0120744531e+05
    1.3615976274e-01    1.0120744531e+05
    1.3616974652e-01    1.0120743750e+05
    1.3617971539e-01    1.0120743750e+05
    1.3618968427e-01    1.0120742969e+05
    1.3619999588e-01    1.0120742969e+05
    1.3620996475e-01    1.0120742969e+05
    1.3621993363e-01    1.0120741406e+05
    1.3622990251e-01    1.0120741406e+05
    1.3623987138e-01    1.0120741406e+05
    1.3624985516e-01    1.0120741406e+05
    1.3625982404e-01    1.0120741406e+05
    1.3626979291e-01    1.0120740625e+05
    1.3627976179e-01    1.0120740625e+05
    1.3628973067e-01    1.0120739844e+05
    1.3629971445e-01    1.0120739844e+05
    1.3630968332e-01    1.0120739844e+05
    1.3631998003e-01    1.0120739844e+05
    1.3632996380e-01    1.0120739844e+05
    1.3633993268e-01    1.0120738281e+05
    1.3634990156e-01    1.0120738281e+05
    1.3635987043e-01    1.0120738281e+05
    1.3636983931e-01    1.0120737500e+05
    1.3637982309e-01    1.0120737500e+05
    1.3638979197e-01    1.0120737500e+05
    1.3639976084e-01    1.0120736719e+05
    1.3640972972e-01    1.0120736719e+05
    1.3641969860e-01    1.0120735156e+05
    1.3642968237e-01    1.0120735156e+05
    1.3643997908e-01    1.0120735156e+05
    1.3644994795e-01    1.0120735156e+05
    1.3645993173e-01    1.0120735156e+05
    1.3646990061e-01    1.0120734375e+05
    1.3647986948e-01    1.0120734375e+05
    1.3648983836e-01    1.0120734375e+05
    1.3649980724e-01    1.0120733594e+05
    1.3650979102e-01    1.0120733594e+05
    1.3651975989e-01    1.0120733594e+05
    1.3652972877e-01    1.0120733594e+05
    1.3653969765e-01    1.0120733594e+05
    1.3654966652e-01    1.0120732031e+05
    1.3655997813e-01    1.0120732031e+05
    1.3656994700e-01    1.0120732031e+05
    1.3657991588e-01    1.0120731250e+05
    1.3658988476e-01    1.0120731250e+05
    1.3659986854e-01    1.0120730469e+05
    1.3660983741e-01    1.0120730469e+05
    1.3661980629e-01    1.0120730469e+05
    1.3662977517e-01    1.0120728906e+05
    1.3663975894e-01    1.0120728906e+05
    1.3664972782e-01    1.0120728906e+05
    1.3665969670e-01    1.0120728906e+05
    1.3666999340e-01    1.0120728906e+05
    1.3667997718e-01    1.0120728125e+05
    1.3668994606e-01    1.0120728125e+05
    1.3669991493e-01    1.0120728125e+05
    1.3670988381e-01    1.0120727344e+05
    1.3671985269e-01    1.0120727344e+05
    1.3672983646e-01    1.0120727344e+05
    1.3673980534e-01    1.0120727344e+05
    1.3674977422e-01    1.0120727344e+05
    1.3675974309e-01    1.0120725781e+05
    1.3676971197e-01    1.0120725781e+05
    1.3677969575e-01    1.0120725781e+05
    1.3678999245e-01    1.0120725000e+05
    1.3679996133e-01    1.0120725000e+05
    1.3680994511e-01    1.0120724219e+05
    1.3681991398e-01    1.0120724219e+05
    1.3682988286e-01    1.0120724219e+05
    1.3683985174e-01    1.0120722656e+05
    1.3684982061e-01    1.0120722656e+05
    1.3685980439e-01    1.0120722656e+05
    1.3686977327e-01    1.0120722656e+05
    1.3687974215e-01    1.0120722656e+05
    1.3688971102e-01    1.0120721875e+05
    1.3689967990e-01    1.0120721875e+05
    1.3690999150e-01    1.0120721875e+05
    1.3691996038e-01    1.0120721094e+05
    1.3692992926e-01    1.0120721094e+05
    1.3693991303e-01    1.0120721094e+05
    1.3694988191e-01    1.0120721094e+05
    1.3695985079e-01    1.0120721094e+05
    1.3696981966e-01    1.0120719531e+05
    1.3697978854e-01    1.0120719531e+05
    1.3698977232e-01    1.0120719531e+05
    1.3699974120e-01    1.0120718750e+05
    1.3700971007e-01    1.0120718750e+05
    1.3701967895e-01    1.0120717969e+05
    1.3702999055e-01    1.0120717969e+05
    1.3703995943e-01    1.0120717969e+05
    1.3704992831e-01    1.0120716406e+05
    1.3705989718e-01    1.0120716406e+05
    1.3706988096e-01    1.0120716406e+05
    1.3707984984e-01    1.0120716406e+05
    1.3708981872e-01    1.0120716406e+05
    1.3709978759e-01    1.0120715625e+05
    1.3710975647e-01    1.0120715625e+05
    1.3711974025e-01    1.0120715625e+05
    1.3712970912e-01    1.0120714844e+05
    1.3713967800e-01    1.0120714844e+05
    1.3714997470e-01    1.0120714844e+05
    1.3715995848e-01    1.0120714844e+05
    1.3716992736e-01    1.0120714844e+05
    1.3717989624e-01    1.0120713281e+05
    1.3718986511e-01    1.0120713281e+05
    1.3719984889e-01    1.0120713281e+05
    1.3720981777e-01    1.0120712500e+05
    1.3721978664e-01    1.0120712500e+05
    1.3722975552e-01    1.0120712500e+05
    1.3723972440e-01    1.0120711719e+05
    1.3724970818e-01    1.0120711719e+05
    1.3725967705e-01    1.0120710156e+05
    1.3726997375e-01    1.0120710156e+05
    1.3727994263e-01    1.0120710156e+05
    1.3728992641e-01    1.0120710156e+05
    1.3729989529e-01    1.0120710156e+05
    1.3730986416e-01    1.0120710156e+05
    1.3731983304e-01    1.0120709375e+05
    1.3732980192e-01    1.0120709375e+05
    1.3733978570e-01    1.0120708594e+05
    1.3734975457e-01    1.0120708594e+05
    1.3735972345e-01    1.0120708594e+05
    1.3736969233e-01    1.0120708594e+05
    1.3737967610e-01    1.0120708594e+05
    1.3738997281e-01    1.0120707031e+05
    1.3739994168e-01    1.0120706250e+05
    1.3740991056e-01    1.0120706250e+05
    1.3741989434e-01    1.0120705469e+05
    1.3742986321e-01    1.0120703906e+05
    1.3743983209e-01    1.0120703125e+05
    1.3744980097e-01    1.0120702344e+05
    1.3745976985e-01    1.0120699219e+05
    1.3746975362e-01    1.0120696875e+05
    1.3747972250e-01    1.0120692969e+05
    1.3748969138e-01    1.0120687500e+05
    1.3750000298e-01    1.0120680469e+05
    1.3750997186e-01    1.0120671094e+05
    1.3751994073e-01    1.0120658594e+05
    1.3752990961e-01    1.0120641406e+05
    1.3753987849e-01    1.0120618750e+05
    1.3754986227e-01    1.0120589844e+05
    1.3755983114e-01    1.0120549219e+05
    1.3756980002e-01    1.0120496875e+05
    1.3757976890e-01    1.0120428906e+05
    1.3758973777e-01    1.0120341406e+05
    1.3759972155e-01    1.0120228906e+05
    1.3760969043e-01    1.0120088281e+05
    1.3761998713e-01    1.0119903906e+05
    1.3762997091e-01    1.0119683594e+05
    1.3763993979e-01    1.0119413281e+05
    1.3764990866e-01    1.0119089844e+05
    1.3765987754e-01    1.0118706250e+05
    1.3766984642e-01    1.0118259375e+05
    1.3767983019e-01    1.0117746094e+05
    1.3768979907e-01    1.0117164844e+05
    1.3769976795e-01    1.0116514844e+05
    1.3770973682e-01    1.0115797656e+05
    1.3771970570e-01    1.0115016406e+05
    1.3772968948e-01    1.0114175781e+05
    1.3773998618e-01    1.0113246094e+05
    1.3774995506e-01    1.0112290625e+05
    1.3775993884e-01    1.0111285156e+05
    1.3776990771e-01    1.0110235156e+05
    1.3777987659e-01    1.0109144531e+05
    1.3778984547e-01    1.0108021094e+05
    1.3779981434e-01    1.0106865625e+05
    1.3780979812e-01    1.0105685156e+05
    1.3781976700e-01    1.0104481250e+05
    1.3782973588e-01    1.0103253906e+05
    1.3783970475e-01    1.0102010156e+05
    1.3784967363e-01    1.0100749219e+05
    1.3785998523e-01    1.0099433594e+05
    1.3786995411e-01    1.0098147656e+05
    1.3787992299e-01    1.0096852344e+05
    1.3788990676e-01    1.0095546875e+05
    1.3789987564e-01    1.0094231250e+05
    1.3790984452e-01    1.0092909375e+05
    1.3791981339e-01    1.0091580469e+05
    1.3792978227e-01    1.0090246094e+05
    1.3793976605e-01    1.0088907031e+05
    1.3794973493e-01    1.0087562500e+05
    1.3795970380e-01    1.0086213281e+05
    1.3796967268e-01    1.0084860156e+05
    1.3797998428e-01    1.0083459375e+05
    1.3798995316e-01    1.0082100000e+05
    1.3799992204e-01    1.0080737500e+05
    1.3800989091e-01    1.0079371875e+05
    1.3801987469e-01    1.0078003906e+05
    1.3802984357e-01    1.0076634375e+05
    1.3803981245e-01    1.0075262500e+05
    1.3804978132e-01    1.0073889844e+05
    1.3805975020e-01    1.0072514844e+05
    1.3806973398e-01    1.0071137500e+05
    1.3807970285e-01    1.0069758594e+05
    1.3808967173e-01    1.0068378125e+05
    1.3809996843e-01    1.0066952344e+05
    1.3810995221e-01    1.0065569531e+05
    1.3811992109e-01    1.0064185156e+05
    1.3812988997e-01    1.0062802344e+05
    1.3813985884e-01    1.0061416406e+05
    1.3814982772e-01    1.0060030469e+05
    1.3815981150e-01    1.0058643750e+05
    1.3816978037e-01    1.0057255469e+05
    1.3817974925e-01    1.0055866406e+05
    1.3818971813e-01    1.0054478906e+05
    1.3819970191e-01    1.0053089844e+05
    1.3820999861e-01    1.0051652344e+05
    1.3821996748e-01    1.0050261719e+05
    1.3822993636e-01    1.0048871094e+05
    1.3823992014e-01    1.0047478906e+05
    1.3824988902e-01    1.0046087500e+05
    1.3825985789e-01    1.0044696094e+05
    1.3826982677e-01    1.0043302344e+05
    1.3827979565e-01    1.0041910156e+05
    1.3828977942e-01    1.0040516406e+05
    1.3829974830e-01    1.0039122656e+05
    1.3830971718e-01    1.0037728906e+05
    1.3831968606e-01    1.0036335156e+05
    1.3832999766e-01    1.0034896094e+05
    1.3833996654e-01    1.0033500000e+05
    1.3834993541e-01    1.0032105469e+05
    1.3835990429e-01    1.0030710156e+05
    1.3836988807e-01    1.0029316406e+05
    1.3837985694e-01    1.0027921094e+05
    1.3838982582e-01    1.0026525781e+05
    1.3839979470e-01    1.0025131250e+05
    1.3840976357e-01    1.0023735156e+05
    1.3841974735e-01    1.0022340625e+05
    1.3842971623e-01    1.0020944531e+05
    1.3843968511e-01    1.0019549219e+05
    1.3844999671e-01    1.0018108594e+05
    1.3845996559e-01    1.0016711719e+05
    1.3846993446e-01    1.0015316406e+05
    1.3847990334e-01    1.0013921094e+05
    1.3848987222e-01    1.0012525000e+05
    1.3849985600e-01    1.0011128906e+05
    1.3850982487e-01    1.0009733594e+05
    1.3851979375e-01    1.0008338281e+05
    1.3852976263e-01    1.0006942969e+05
    1.3853973150e-01    1.0005547656e+05
    1.3854971528e-01    1.0004152344e+05
    1.3855968416e-01    1.0002757031e+05
    1.3856998086e-01    1.0001314844e+05
    1.3857996464e-01    9.9999195312e+04
    1.3858993351e-01    9.9985242188e+04
    1.3859990239e-01    9.9971289062e+04
    1.3860987127e-01    9.9957335938e+04
    1.3861984015e-01    9.9943398438e+04
    1.3862982392e-01    9.9929437500e+04
    1.3863979280e-01    9.9915492188e+04
    1.3864976168e-01    9.9901539062e+04
    1.3865973055e-01    9.9887593750e+04
    1.3866969943e-01    9.9873656250e+04
    1.3867968321e-01    9.9859710938e+04
    1.3868997991e-01    9.9845304688e+04
    1.3869994879e-01    9.9831351562e+04
    1.3870993257e-01    9.9817414062e+04
    1.3871990144e-01    9.9803476562e+04
    1.3872987032e-01    9.9789539062e+04
    1.3873983920e-01    9.9775601562e+04
    1.3874980807e-01    9.9761664062e+04
    1.3875979185e-01    9.9747726562e+04
    1.3876976073e-01    9.9733804688e+04
    1.3877972960e-01    9.9719875000e+04
    1.3878969848e-01    9.9705945312e+04
    1.3879966736e-01    9.9692023438e+04
    1.3880997896e-01    9.9677625000e+04
    1.3881994784e-01    9.9663710938e+04
    1.3882991672e-01    9.9649781250e+04
    1.3883990049e-01    9.9635851562e+04
    1.3884986937e-01    9.9621937500e+04
    1.3885983825e-01    9.9608023438e+04
    1.3886980712e-01    9.9594101562e+04
    1.3887977600e-01    9.9580195312e+04
    1.3888975978e-01    9.9566281250e+04
    1.3889972866e-01    9.9552367188e+04
    1.3890969753e-01    9.9538460938e+04
    1.3891966641e-01    9.9524554688e+04
    1.3892997801e-01    9.9510187500e+04
    1.3893994689e-01    9.9496281250e+04
    1.3894991577e-01    9.9482382812e+04
    1.3895988464e-01    9.9468476562e+04
    1.3896985352e-01    9.9454585938e+04
    1.3897983730e-01    9.9440695312e+04
    1.3898980618e-01    9.9426804688e+04
    1.3899977505e-01    9.9412914062e+04
    1.3900974393e-01    9.9399023438e+04
    1.3901972771e-01    9.9385148438e+04
    1.3902969658e-01    9.9371257812e+04
    1.3903999329e-01    9.9356914062e+04
    1.3904996216e-01    9.9343031250e+04
    1.3905994594e-01    9.9329156250e+04
    1.3906991482e-01    9.9315281250e+04
    1.3907988369e-01    9.9301414062e+04
    1.3908985257e-01    9.9287539062e+04
    1.3909982145e-01    9.9273664062e+04
    1.3910980523e-01    9.9259812500e+04
    1.3911977410e-01    9.9245945312e+04
    1.3912974298e-01    9.9232085938e+04
    1.3913971186e-01    9.9218226562e+04
    1.3914969563e-01    9.9204375000e+04
    1.3915999234e-01    9.9190062500e+04
    1.3916996121e-01    9.9176218750e+04
    1.3917993009e-01    9.9162375000e+04
    1.3918991387e-01    9.9148531250e+04
    1.3919988275e-01    9.9134687500e+04
    1.3920985162e-01    9.9120851562e+04
    1.3921982050e-01    9.9107023438e+04
    1.3922978938e-01    9.9093187500e+04
    1.3923977315e-01    9.9079351562e+04
    1.3924974203e-01    9.9065531250e+04
    1.3925971091e-01    9.9051710938e+04
    1.3926967978e-01    9.9037898438e+04
    1.3927999139e-01    9.9023601562e+04
    1.3928996027e-01    9.9009789062e+04
    1.3929992914e-01    9.8995992188e+04
    1.3930989802e-01    9.8982187500e+04
    1.3931988180e-01    9.8968382812e+04
    1.3932985067e-01    9.8954585938e+04
    1.3933981955e-01    9.8940789062e+04
    1.3934978843e-01    9.8926992188e+04
    1.3935975730e-01    9.8913210938e+04
    1.3936974108e-01    9.8899414062e+04
    1.3937970996e-01    9.8885648438e+04
    1.3938967884e-01    9.8871867188e+04
    1.3939999044e-01    9.8857632812e+04
    1.3940995932e-01    9.8843867188e+04
    1.3941992819e-01    9.8830101562e+04
    1.3942989707e-01    9.8816343750e+04
    1.3943986595e-01    9.8802585938e+04
    1.3944984972e-01    9.8788835938e+04
    1.3945981860e-01    9.8775085938e+04
    1.3946978748e-01    9.8761343750e+04
    1.3947975636e-01    9.8747601562e+04
    1.3948972523e-01    9.8733875000e+04
    1.3949970901e-01    9.8720148438e+04
    1.3950967789e-01    9.8706429688e+04
    1.3951997459e-01    9.8692257812e+04
    1.3952995837e-01    9.8678539062e+04
    1.3953992724e-01    9.8664835938e+04
    1.3954989612e-01    9.8651148438e+04
    1.3955986500e-01    9.8637445312e+04
    1.3956983387e-01    9.8623757812e+04
    1.3957981765e-01    9.8610085938e+04
    1.3958978653e-01    9.8596406250e+04
    1.3959975541e-01    9.8582742188e+04
    1.3960972428e-01    9.8569085938e+04
    1.3961969316e-01    9.8555437500e+04
    1.3962967694e-01    9.8541789062e+04
    1.3963997364e-01    9.8527710938e+04
    1.3964994252e-01    9.8514085938e+04
    1.3965992630e-01    9.8500468750e+04
    1.3966989517e-01    9.8486851562e+04
    1.3967986405e-01    9.8473273438e+04
    1.3968983293e-01    9.8459679688e+04
    1.3969980180e-01    9.8446101562e+04
    1.3970978558e-01    9.8432539062e+04
    1.3971975446e-01    9.8419000000e+04
    1.3972972333e-01    9.8405468750e+04
    1.3973969221e-01    9.8391945312e+04
    1.3975000381e-01    9.8377992188e+04
    1.3975997269e-01    9.8364507812e+04
    1.3976994157e-01    9.8351039062e+04
    1.3977991045e-01    9.8337585938e+04
    1.3978989422e-01    9.8324156250e+04
    1.3979986310e-01    9.8310750000e+04
    1.3980983198e-01    9.8297375000e+04
    1.3981980085e-01    9.8284023438e+04
    1.3982976973e-01    9.8270695312e+04
    1.3983975351e-01    9.8257398438e+04
    1.3984972239e-01    9.8244148438e+04
    1.3985969126e-01    9.8230929688e+04
    1.3986998796e-01    9.8217320312e+04
    1.3987997174e-01    9.8204210938e+04
    1.3988994062e-01    9.8191148438e+04
    1.3989990950e-01    9.8178148438e+04
    1.3990987837e-01    9.8165226562e+04
    1.3991986215e-01    9.8152398438e+04
    1.3992983103e-01    9.8139656250e+04
    1.3993979990e-01    9.8127039062e+04
    1.3994976878e-01    9.8114562500e+04
    1.3995973766e-01    9.8102242188e+04
    1.3996972144e-01    9.8090125000e+04
    1.3997969031e-01    9.8078226562e+04
    1.3998998702e-01    9.8066257812e+04
    1.3999995589e-01    9.8055031250e+04
endcurve
