Curveplot
LS-DYNA keyword deck by LS-PrePost                          
Time
Pressure
Defined Connection
Pressure @ 1 #pts=12001
* Minval=     1.8022270203e+02 at time=         0.0033596663
* Maxval=     7.2154395000e+06 at time=         0.0002499484
    0.0000000000e+00    1.0120000000e+05
    9.9485332612e-06    1.0120000000e+05
    1.9897423044e-05    1.0120000000e+05
    2.9951565011e-05    1.0120000000e+05
    3.9980728616e-05    1.0120000000e+05
    4.9974012654e-05    1.0120000000e+05
    5.9942107328e-05    1.0120000000e+05
    6.9999761763e-05    1.0120000000e+05
    7.9961559095e-05    1.0120000000e+05
    8.9972141723e-05    1.0120000000e+05
    9.9981560197e-05    1.0120000000e+05
    1.0998940706e-04    1.0120000000e+05
    1.1998419359e-04    1.0120000000e+05
    1.2995323050e-04    1.0120000000e+05
    1.3996017515e-04    1.0120000000e+05
    1.4999906125e-04    1.0120000000e+05
    1.5998946037e-04    1.0120000000e+05
    1.6999771469e-04    1.0120000000e+05
    1.7994047084e-04    1.0120000000e+05
    1.8996509607e-04    1.0120000000e+05
    1.9998881908e-04    1.0120000000e+05
    2.0992395002e-04    1.0120000000e+05
    2.1992504480e-04    1.0120000000e+05
    2.2998896020e-04    1.0120000000e+05
    2.3994274670e-04    1.0120000000e+05
    2.4994841078e-04    7.2154395000e+06
    2.5991513394e-04    6.2705465000e+06
    2.6992458152e-04    5.5424165000e+06
    2.7997355210e-04    4.9757415000e+06
    2.8996740002e-04    3.8751892500e+06
    2.9999073013e-04    2.5411370000e+06
    3.0994569534e-04    1.3906779688e+05
    3.1992045115e-04    1.5040237500e+05
    3.2990923501e-04    1.6484314062e+05
    3.3999598236e-04    1.7837168750e+05
    3.4997868352e-04    1.9059842188e+05
    3.5995614599e-04    2.0140117188e+05
    3.6992397509e-04    2.1050806250e+05
    3.7997920299e-04    2.1796232812e+05
    3.8992188638e-04    2.2347892188e+05
    3.9995176485e-04    2.2718862500e+05
    4.0996674215e-04    2.2913025000e+05
    4.1996513028e-04    2.2931989062e+05
    4.2994352407e-04    2.2800329688e+05
    4.3990372797e-04    2.2527592188e+05
    4.4994760538e-04    2.2126864062e+05
    4.5997006237e-04    2.1621907812e+05
    4.6996766469e-04    2.1032492188e+05
    4.7994256602e-04    2.0375825000e+05
    4.8999983119e-04    1.9660476562e+05
    4.9992161803e-04    1.8918856250e+05
    5.0992099568e-04    1.8148735938e+05
    5.1989406347e-04    1.7369935938e+05
    5.2994879661e-04    1.6584242188e+05
    5.3997262148e-04    1.5809046875e+05
    5.4996390827e-04    1.5051276562e+05
    5.5991881527e-04    1.4315764062e+05
    5.6995544583e-04    1.3598481250e+05
    5.7995592942e-04    1.2910891406e+05
    5.8991851984e-04    1.2255331250e+05
    5.9996009804e-04    1.1625258594e+05
    6.0996110551e-04    1.1028486719e+05
    6.1992055271e-04    1.0465636719e+05
    6.2995956978e-04    9.9299093750e+04
    6.3995551318e-04    9.4266625000e+04
    6.4990657847e-04    8.9544320312e+04
    6.5993523458e-04    8.5069117188e+04
    6.6991476342e-04    8.0890625000e+04
    6.7997438600e-04    7.6940968750e+04
    6.8998552160e-04    7.3250765625e+04
    6.9994624937e-04    6.9795242188e+04
    7.0998381125e-04    6.6512859375e+04
    7.1996916085e-04    6.3433261719e+04
    7.2989746695e-04    6.0544355469e+04
    7.3990441160e-04    5.7796859375e+04
    7.4998824857e-04    5.5184046875e+04
    7.5988157187e-04    5.2762093750e+04
    7.6998496661e-04    5.0423140625e+04
    7.7989377314e-04    4.8251964844e+04
    7.8987726010e-04    4.6178980469e+04
    7.9993344843e-04    4.4199472656e+04
    8.0992997391e-04    4.2332625000e+04
    8.1986159785e-04    4.0571242188e+04
    8.2986772759e-04    3.8885089844e+04
    8.3994906163e-04    3.7270753906e+04
    8.4996316582e-04    3.5746242188e+04
    8.5990765365e-04    3.4305757812e+04
    8.6992606521e-04    3.2924375000e+04
    8.7986927247e-04    3.1618787109e+04
    8.8988884818e-04    3.0365548828e+04
    8.9998322073e-04    2.9162748047e+04
    9.0985273710e-04    2.8041623047e+04
    9.1994530521e-04    2.6948236328e+04
    9.2996051535e-04    2.5913443359e+04
    9.3989592278e-04    2.4933689453e+04
    9.4990356592e-04    2.3991484375e+04
    9.5998420147e-04    2.3085380859e+04
    9.6997723449e-04    2.2227552734e+04
    9.7988592461e-04    2.1414728516e+04
    9.8986946978e-04    2.0631859375e+04
    9.9992484320e-04    1.9878150391e+04
    1.0098917410e-03    1.9163824219e+04
    1.0199297685e-03    1.8475685547e+04
    1.0298761772e-03    1.7823257812e+04
    1.0398931336e-03    1.7194328125e+04
    1.0499813361e-03    1.6588031250e+04
    1.0599745438e-03    1.6012928711e+04
    1.0698699625e-03    1.5467217773e+04
    1.0798316216e-03    1.4940565430e+04
    1.0898627806e-03    1.4432187500e+04
    1.0999671649e-03    1.3941254883e+04
    1.1099696858e-03    1.3475198242e+04
    1.1198674329e-03    1.3032612305e+04
    1.1298329337e-03    1.2604795898e+04
    1.1398668867e-03    1.2191254883e+04
    1.1499702232e-03    1.1791500977e+04
    1.1599642457e-03    1.1411729492e+04
    1.1698462768e-03    1.1050838867e+04
    1.1799762724e-03    1.0695293945e+04
    1.1899931123e-03    1.0357407227e+04
    1.1998941191e-03    1.0036208008e+04
    1.2098611332e-03    9.7251230469e+03
    1.2198952027e-03    9.4238193359e+03
    1.2299969094e-03    9.1319892578e+03
    1.2399780098e-03    8.8544765625e+03
    1.2498318683e-03    8.5906005859e+03
    1.2599404436e-03    8.3299013672e+03
    1.2699295767e-03    8.0817807617e+03
    1.2799848337e-03    7.8411459961e+03
    1.2899119174e-03    7.6121835938e+03
    1.2999040773e-03    7.3899887695e+03
    1.3099620119e-03    7.1743559570e+03
    1.3198874658e-03    6.9691264648e+03
    1.3298776466e-03    6.7698286133e+03
    1.3399330201e-03    6.5762905273e+03
    1.3498517219e-03    6.3920405273e+03
    1.3598346850e-03    6.2129965820e+03
    1.3698824914e-03    6.0390097656e+03
    1.3799961889e-03    5.8699311523e+03
    1.3899679761e-03    5.7089243164e+03
    1.3997947099e-03    5.5555756836e+03
    1.4098947868e-03    5.4032416992e+03
    1.4198487625e-03    5.2581440430e+03
    1.4298666501e-03    5.1169599609e+03
    1.4399496140e-03    4.9795727539e+03
    1.4498812379e-03    4.8486933594e+03
    1.4598765410e-03    4.7212558594e+03
    1.4699363383e-03    4.5971674805e+03
    1.4798404882e-03    4.4789306641e+03
    1.4898075024e-03    4.3637299805e+03
    1.4998384286e-03    4.2514838867e+03
    1.5099340817e-03    4.1421127930e+03
    1.5198688488e-03    4.0378781738e+03
    1.5298661310e-03    3.9362590332e+03
    1.5399281401e-03    3.8371718750e+03
    1.5498235589e-03    3.7427346191e+03
    1.5597826568e-03    3.6505900879e+03
    1.5698038042e-03    3.5607033691e+03
    1.5798894456e-03    3.4730019531e+03
    1.5898041893e-03    3.3893933105e+03
    1.5997822629e-03    3.3077646484e+03
    1.6098242486e-03    3.2280710449e+03
    1.6199303791e-03    3.1502678223e+03
    1.6298582777e-03    3.0760983887e+03
    1.6398482258e-03    3.0036477051e+03
    1.6499016201e-03    2.9328723145e+03
    1.6597736394e-03    2.8653859863e+03
    1.6699557891e-03    2.7977941895e+03
    1.6799541190e-03    2.7333466797e+03
    1.6897631576e-03    2.6719074707e+03
    1.6998886131e-03    2.6102836914e+03
    1.7098234966e-03    2.5515327148e+03
    1.7198212445e-03    2.4940659180e+03
    1.7298831372e-03    2.4378518066e+03
    1.7397493357e-03    2.3842575684e+03
    1.7499401001e-03    2.3304360352e+03
    1.7599335406e-03    2.2791210938e+03
    1.7699910095e-03    2.2288933105e+03
    1.7798459157e-03    2.1810104980e+03
    1.7897628713e-03    2.1341159668e+03
    1.7997432733e-03    2.0881860352e+03
    1.8097875873e-03    2.0432015381e+03
    1.8198966281e-03    1.9991429443e+03
    1.8297954230e-03    1.9571436768e+03
    1.8397575477e-03    1.9159837646e+03
    1.8497833516e-03    1.8756468506e+03
    1.8598738825e-03    1.8361146240e+03
    1.8697472988e-03    1.7984359131e+03
    1.8799684476e-03    1.7604427490e+03
    1.8899705028e-03    1.7242304688e+03
    1.8997486914e-03    1.6897241211e+03
    1.9098792691e-03    1.6548803711e+03
    1.9197842339e-03    1.6216767578e+03
    1.9297528779e-03    1.5890960693e+03
    1.9397860160e-03    1.5571269531e+03
    1.9498848123e-03    1.5257572021e+03
    1.9597501960e-03    1.4958714600e+03
    1.9699807744e-03    1.4656485596e+03
    1.9799750298e-03    1.4368572998e+03
    1.9897213206e-03    1.4094600830e+03
    1.9998461939e-03    1.3816865234e+03
    2.0097286906e-03    1.3552348633e+03
    2.0199874416e-03    1.3284432373e+03
    2.0296876319e-03    1.3037172852e+03
    2.0397657063e-03    1.2786347656e+03
    2.0499110688e-03    1.2539920654e+03
    2.0598042756e-03    1.2305313721e+03
    2.0697626751e-03    1.2074688721e+03
    2.0797869656e-03    1.1847973633e+03
    2.0898783114e-03    1.1625098877e+03
    2.0997084212e-03    1.1413012695e+03
    2.1099345759e-03    1.1197503662e+03
    2.1198973991e-03    1.0992419434e+03
    2.1299272776e-03    1.0790689697e+03
    2.1396866068e-03    1.0598822021e+03
    2.1498505957e-03    1.0403525391e+03
    2.1597421728e-03    1.0217772827e+03
    2.1696998738e-03    1.0034953003e+03
    2.1797250956e-03    9.8550128174e+02
    2.1898152772e-03    9.6779608154e+02
    2.1999753080e-03    9.5037054443e+02
    2.2098552436e-03    9.3380035400e+02
    2.2198020015e-03    9.1748187256e+02
    2.2298169788e-03    9.0141094971e+02
    2.2399011068e-03    8.8558380127e+02
    2.2496914025e-03    8.7054913330e+02
    2.2599149961e-03    8.5518975830e+02
    2.2698421963e-03    8.4059881592e+02
    2.2798378486e-03    8.2622094727e+02
    2.2899038158e-03    8.1205230713e+02
    2.2996640764e-03    7.9860369873e+02
    2.3098704405e-03    7.8483709717e+02
    2.3197687697e-03    7.7176953125e+02
    2.3297325242e-03    7.5888885498e+02
    2.3397635669e-03    7.4619305420e+02
    2.3498735391e-03    7.3366632080e+02
    2.3596631363e-03    7.2178558350e+02
    2.3699179292e-03    7.0959869385e+02
    2.3798493203e-03    6.9804052734e+02
    2.3898521904e-03    6.8663702393e+02
    2.3999272380e-03    6.7538592529e+02
    2.4096691050e-03    6.6472637939e+02
    2.4198903702e-03    6.5376794434e+02
    2.4297749624e-03    6.4338507080e+02
    2.4397312663e-03    6.3313500977e+02
    2.4497611448e-03    6.2301580811e+02
    2.4598606396e-03    6.1303015137e+02
    2.4696153123e-03    6.0357562256e+02
    2.4798696395e-03    5.9383294678e+02
    2.4897709955e-03    5.8461230469e+02
    2.4997317232e-03    5.7551525879e+02
    2.5097390171e-03    5.6654980469e+02
    2.5197865907e-03    5.5772503662e+02
    2.5298676919e-03    5.4904418945e+02
    2.5399830192e-03    5.4051007080e+02
    2.5496787857e-03    5.3247491455e+02
    2.5598504581e-03    5.2422723389e+02
    2.5695865043e-03    5.1647052002e+02
    2.5797595736e-03    5.0849011230e+02
    2.5899761822e-03    5.0068240356e+02
    2.5997296907e-03    4.9332632446e+02
    2.6099444367e-03    4.8579263306e+02
    2.6197051629e-03    4.7870993042e+02
    2.6299178135e-03    4.7146459961e+02
    2.6396559551e-03    4.6463998413e+02
    2.6498497464e-03    4.5765829468e+02
    2.6596181560e-03    4.5111026001e+02
    2.6698117144e-03    4.4438107300e+02
    2.6799975894e-03    4.3777523804e+02
    2.6897578500e-03    4.3157711792e+02
    2.6999257971e-03    4.2521682739e+02
    2.7096671984e-03    4.1925039673e+02
    2.7198314201e-03    4.1311203003e+02
    2.7299984358e-03    4.0710205078e+02
    2.7397535741e-03    4.0144418335e+02
    2.7499182615e-03    3.9563925171e+02
    2.7596766595e-03    3.9016674805e+02
    2.7698124759e-03    3.8459439087e+02
    2.7799031232e-03    3.7914163208e+02
    2.7899974957e-03    3.7377188110e+02
    2.7996941935e-03    3.6872656250e+02
    2.8098789044e-03    3.6349545288e+02
    2.8196331114e-03    3.5858486938e+02
    2.8298718389e-03    3.5352133179e+02
    2.8396446723e-03    3.4875900269e+02
    2.8498955071e-03    3.4385794067e+02
    2.8597170021e-03    3.3924130249e+02
    2.8699862305e-03    3.3449667358e+02
    2.8798365965e-03    3.3002987671e+02
    2.8897151351e-03    3.2562640381e+02
    2.8996041510e-03    3.2129745483e+02
    2.9099211097e-03    3.1683154297e+02
    2.9198266566e-03    3.1263159180e+02
    2.9297438450e-03    3.0849618530e+02
    2.9396624304e-03    3.0442767334e+02
    2.9495784547e-03    3.0042733765e+02
    2.9599631671e-03    2.9631976318e+02
    2.9698726721e-03    2.9245248413e+02
    2.9797591269e-03    2.8865484619e+02
    2.9896521010e-03    2.8492370605e+02
    2.9999744147e-03    2.8109536743e+02
    3.0098163988e-03    2.7750079346e+02
    3.0196376611e-03    2.7397583008e+02
    3.0298705678e-03    2.7035836792e+02
    3.0396301299e-03    2.6696701050e+02
    3.0497885309e-03    2.6349209595e+02
    3.0598929152e-03    2.6009170532e+02
    3.0699353665e-03    2.5676641846e+02
    3.0799161177e-03    2.5351434326e+02
    3.0898337718e-03    2.5033415222e+02
    3.0996934511e-03    2.4722184753e+02
    3.1099189073e-03    2.4404545593e+02
    3.1196582131e-03    2.4106761169e+02
    3.1297593378e-03    2.3802729797e+02
    3.1397980638e-03    2.3505332947e+02
    3.1497753225e-03    2.3214379883e+02
    3.1596897170e-03    2.2929722595e+02
    3.1699552201e-03    2.2639605713e+02
    3.1797497068e-03    2.2367085266e+02
    3.1898894813e-03    2.2089289856e+02
    3.1999663915e-03    2.1817506409e+02
    3.2099809032e-03    2.1551554871e+02
    3.2199337147e-03    2.1291270447e+02
    3.2298252918e-03    2.1036491394e+02
    3.2396542374e-03    2.0787113953e+02
    3.2498151995e-03    2.0533207703e+02
    3.2599123660e-03    2.0284754944e+02
    3.2699457370e-03    2.0041595459e+02
    3.2799167093e-03    1.9803581238e+02
    3.2898250502e-03    1.9570562744e+02
    3.2996693626e-03    1.9342451477e+02
    3.3098286949e-03    1.9110560608e+02
    3.3199242316e-03    1.8883561707e+02
    3.3299552742e-03    1.8661363220e+02
    3.3399222884e-03    1.8443836975e+02
    3.3498257399e-03    1.8230847168e+02
    3.3596663270e-03    1.8022270203e+02
    3.3698028419e-03    1.2623979492e+04
    3.3798739314e-03    2.4814015625e+04
    3.3898798283e-03    2.5281599609e+04
    3.3998202998e-03    2.5740748047e+04
    3.4096955787e-03    2.6191345703e+04
    3.4198551439e-03    2.6649615234e+04
    3.4299462568e-03    2.7099853516e+04
    3.4399686847e-03    2.7542302734e+04
    3.4499231260e-03    2.7977046875e+04
    3.4598100465e-03    2.8404505859e+04
    3.4699672833e-03    2.8839775391e+04
    3.4797179978e-03    2.9254248047e+04
    3.4897357691e-03    2.9676611328e+04
    3.4996827599e-03    3.0092632812e+04
    3.5098877270e-03    3.0516369141e+04
    3.5196926910e-03    3.0921060547e+04
    3.5297509748e-03    3.1333978516e+04
    3.5397359170e-03    3.1741806641e+04
    3.5499657970e-03    3.2157861328e+04
    3.5598019604e-03    3.2556740234e+04
    3.5698791035e-03    3.2964636719e+04
    3.5798787139e-03    3.3368824219e+04
    3.5898012575e-03    3.3769460938e+04
    3.5999531392e-03    3.4179152344e+04
    3.6097201519e-03    3.4573269531e+04
    3.6197120789e-03    3.4976402344e+04
    3.6299224012e-03    3.5388222656e+04
    3.6397501826e-03    3.5784550781e+04
    3.6497914698e-03    3.6189472656e+04
    3.6597470753e-03    3.6590937500e+04
    3.6699061748e-03    3.7000601562e+04
    3.6799744703e-03    3.7406605469e+04
    3.6899528932e-03    3.7809000000e+04
    3.6998407450e-03    3.8207765625e+04
    3.7099167239e-03    3.8614160156e+04
    3.7198967766e-03    3.9016726562e+04
    3.7297809031e-03    3.9415449219e+04
    3.7398391869e-03    3.9821238281e+04
    3.7497959565e-03    4.0222988281e+04
    3.7599154748e-03    4.0631394531e+04
    3.7699274253e-03    4.1035566406e+04
    3.7798301782e-03    4.1435464844e+04
    3.7898807786e-03    4.1841414062e+04
    3.7998156622e-03    4.2242765625e+04
    3.8098851219e-03    4.2649691406e+04
    3.8198318798e-03    4.3052031250e+04
    3.8298985455e-03    4.3459757812e+04
    3.8398343604e-03    4.3862417969e+04
    3.8498751819e-03    4.4269250000e+04
    3.8597758394e-03    4.4670332031e+04
    3.8699957076e-03    4.5084574219e+04
    3.8798309397e-03    4.5483574219e+04
    3.8899602368e-03    4.5894738281e+04
    3.8999195676e-03    4.6299214844e+04
    3.9099217393e-03    4.6705792969e+04
    3.9199516177e-03    4.7114000000e+04
    3.9299926721e-03    4.7522996094e+04
    3.9398246445e-03    4.7923546875e+04
    3.9498377591e-03    4.8331644531e+04
    3.9599975571e-03    4.8746218750e+04
    3.9698891342e-03    4.9150480469e+04
    3.9798668586e-03    4.9558652344e+04
    3.9898836985e-03    4.9968640625e+04
    3.9998856373e-03    5.0378386719e+04
    4.0099709295e-03    5.0792250000e+04
    4.0198862553e-03    5.1199832031e+04
    4.0299654938e-03    5.1614582031e+04
    4.0399804711e-03    5.2027062500e+04
    4.0499502793e-03    5.2438410156e+04
    4.0599354543e-03    5.2851972656e+04
    4.0699252859e-03    5.3261531250e+04
    4.0799905546e-03    5.3675359375e+04
    4.0899850428e-03    5.4087464844e+04
    4.0999636985e-03    5.4500046875e+04
    4.1099484079e-03    5.4912312500e+04
    4.1199969128e-03    5.5328550781e+04
    4.1299550794e-03    5.5742042969e+04
    4.1399644688e-03    5.6157796875e+04
    4.1499221697e-03    5.6572917969e+04
    4.1598407552e-03    5.6985761719e+04
    4.1698846035e-03    5.7404886719e+04
    4.1798949242e-03    5.7824394531e+04
    4.1898926720e-03    5.8242042969e+04
    4.1999369860e-03    5.8663863281e+04
    4.2099659331e-03    5.9084597656e+04
    4.2198617011e-03    5.9501636719e+04
    4.2298971675e-03    5.9923480469e+04
    4.2399708182e-03    6.0349191406e+04
    4.2499830015e-03    6.0771500000e+04
    4.2598554865e-03    6.1189511719e+04
    4.2699966580e-03    6.1620093750e+04
    4.2798174545e-03    6.2036988281e+04
    4.2899190448e-03    6.2466988281e+04
    4.2998511344e-03    6.2891125000e+04
    4.3098768219e-03    6.3318675781e+04
    4.3199378997e-03    6.3749355469e+04
    4.3298783712e-03    6.4175703125e+04
    4.3398416601e-03    6.4604300781e+04
    4.3498817831e-03    6.5035843750e+04
    4.3599558994e-03    6.5470300781e+04
    4.3698921800e-03    6.5900140625e+04
    4.3798671104e-03    6.6332585938e+04
    4.3898811564e-03    6.6767484375e+04
    4.3999413028e-03    6.7204992188e+04
    4.4098342769e-03    6.7635140625e+04
    4.4199945405e-03    6.8078250000e+04
    4.4299615547e-03    6.8515679688e+04
    4.4398009777e-03    6.8949179688e+04
    4.4498429634e-03    6.9391929688e+04
    4.4599645771e-03    6.9837742188e+04
    4.4698812999e-03    7.0274710938e+04
    4.4798525050e-03    7.0715398438e+04
    4.4898604974e-03    7.1159609375e+04
    4.4998801313e-03    7.1605632812e+04
    4.5099789277e-03    7.2056414062e+04
    4.5198416337e-03    7.2497601562e+04
    4.5298109762e-03    7.2944960938e+04
    4.5399488881e-03    7.3401437500e+04
    4.5499685220e-03    7.3853835938e+04
    4.5599844307e-03    7.4307273438e+04
    4.5698145404e-03    7.4752796875e+04
    4.5799338259e-03    7.5212843750e+04
    4.5898030512e-03    7.5661914062e+04
    4.5999838039e-03    7.6127882812e+04
    4.6099307947e-03    7.6584390625e+04
    4.6199252829e-03    7.7044937500e+04
    4.6299635433e-03    7.7507875000e+04
    4.6397903934e-03    7.7962757812e+04
    4.6498975717e-03    7.8431734375e+04
    4.6597919427e-03    7.8892906250e+04
    4.6699494123e-03    7.9368039062e+04
    4.6799178235e-03    7.9835273438e+04
    4.6899016015e-03    8.0305273438e+04
    4.6999347396e-03    8.0778226562e+04
    4.7099841759e-03    8.1254257812e+04
    4.7198319808e-03    8.1722679688e+04
    4.7299438156e-03    8.2204742188e+04
    4.7398507595e-03    8.2679601562e+04
    4.7497753985e-03    8.3156664062e+04
    4.7599631362e-03    8.3646976562e+04
    4.7699436545e-03    8.4130742188e+04
    4.7799423337e-03    8.4616710938e+04
    4.7899722122e-03    8.5103914062e+04
    4.7997953370e-03    8.5583570312e+04
    4.8098559491e-03    8.6082625000e+04
    4.8199496232e-03    8.6584906250e+04
    4.8298356123e-03    8.7067890625e+04
    4.8399581574e-03    8.7561492188e+04
    4.8498781398e-03    8.8065000000e+04
    4.8598204739e-03    8.8584460938e+04
    4.8697702587e-03    8.9086570312e+04
    4.8799719661e-03    8.9574351562e+04
    4.8899641261e-03    9.0063093750e+04
    4.8999679275e-03    9.0593843750e+04
    4.9099833705e-03    9.1146304688e+04
    4.9197860062e-03    9.1665585938e+04
    4.9298400991e-03    9.2163960938e+04
    4.9398951232e-03    9.2651000000e+04
    4.9499701709e-03    9.3155789062e+04
    4.9598258920e-03    9.3680539062e+04
    4.9699237570e-03    9.4242164062e+04
    4.9797925167e-03    9.4795398438e+04
    4.9899136648e-03    9.5351335938e+04
    4.9998066388e-03    9.5879476562e+04
    5.0099394284e-03    9.6411851562e+04
    5.0198445097e-03    9.6936867188e+04
    5.0299945287e-03    9.7487539062e+04
    5.0399112515e-03    9.8034195312e+04
    5.0498321652e-03    9.8583250000e+04
    5.0599914975e-03    9.9147101562e+04
    5.0699147396e-03    9.9701812500e+04
    5.0798379816e-03    1.0026089844e+05
    5.0899982452e-03    1.0083742969e+05
    5.0999224186e-03    1.0140465625e+05
    5.1098470576e-03    1.0197608594e+05
    5.1197716966e-03    1.0255128906e+05
    5.1299328916e-03    1.0314362500e+05
    5.1398575306e-03    1.0372535156e+05
    5.1497821696e-03    1.0431040625e+05
    5.1599428989e-03    1.0491311719e+05
    5.1698670723e-03    1.0550569531e+05
    5.1797907799e-03    1.0610188281e+05
    5.1899505779e-03    1.0671605469e+05
    5.1998738199e-03    1.0732047656e+05
    5.2097961307e-03    1.0793066406e+05
    5.2199545316e-03    1.0856521094e+05
    5.2298763767e-03    1.0919703906e+05
    5.2397972904e-03    1.0984039844e+05
    5.2499538288e-03    1.1050628906e+05
    5.2598738112e-03    1.1115178906e+05
    5.2697928622e-03    1.1178593750e+05
    5.2799456753e-03    1.1243293750e+05
    5.2898628637e-03    1.1307913281e+05
    5.2997819148e-03    1.1374833594e+05
    5.3099310026e-03    1.1445164844e+05
    5.3198416717e-03    1.1514430469e+05
    5.3297644481e-03    1.1583608594e+05
    5.3399191238e-03    1.1654125781e+05
    5.3498242050e-03    1.1722975000e+05
    5.3599844687e-03    1.1794774219e+05
    5.3699230775e-03    1.1867407031e+05
    5.3798500448e-03    1.1941916406e+05
    5.3897812031e-03    1.2016459375e+05
    5.3999726661e-03    1.2092096094e+05
    5.4099266417e-03    1.2166741406e+05
    5.4198848084e-03    1.2244096094e+05
    5.4298588075e-03    1.2323884375e+05
    5.4398379289e-03    1.2404034375e+05
    5.4498193786e-03    1.2483814844e+05
    5.4598189890e-03    1.2564910156e+05
    5.4698293097e-03    1.2648969531e+05
    5.4798340425e-03    1.2735249219e+05
    5.4898508824e-03    1.2852568750e+05
    5.4998891428e-03    3.0820015625e+05
    5.5099288002e-03    3.0388918750e+05
    5.5199647322e-03    3.0132265625e+05
    5.5297757499e-03    2.9891515625e+05
    5.5398438126e-03    2.9651934375e+05
    5.5499104783e-03    2.9412640625e+05
    5.5599799380e-03    2.9179721875e+05
    5.5698216893e-03    2.8958153125e+05
    5.5799181573e-03    2.8736921875e+05
    5.5897752754e-03    2.8525190625e+05
    5.5998768657e-03    2.8311378125e+05
    5.6099900976e-03    2.8101137500e+05
    5.6198732927e-03    2.7901171875e+05
    5.6297639385e-03    2.7706403125e+05
    5.6398948655e-03    2.7510612500e+05
    5.6497920305e-03    2.7322093750e+05
    5.6599434465e-03    2.7132228125e+05
    5.6698615663e-03    2.6951703125e+05
    5.6797787547e-03    2.6775462500e+05
    5.6899418123e-03    2.6598009375e+05
    5.6998776272e-03    2.6427084375e+05
    5.7098227553e-03    2.6259868750e+05
    5.7197711430e-03    2.6096757812e+05
    5.7299621403e-03    2.5932957812e+05
    5.7399235666e-03    2.5775300000e+05
    5.7498943061e-03    2.5620493750e+05
    5.7598664425e-03    2.5469429688e+05
    5.7698381133e-03    2.5321631250e+05
    5.7798172347e-03    2.5175832812e+05
    5.7898112573e-03    2.5032526562e+05
    5.7998066768e-03    2.4892557812e+05
    5.8098062873e-03    2.4755576562e+05
    5.8198086917e-03    2.4620281250e+05
    5.8298264630e-03    2.4488170312e+05
    5.8398474939e-03    2.4358107812e+05
    5.8498680592e-03    2.4231092188e+05
    5.8598951437e-03    2.4106117188e+05
    5.8699320070e-03    2.3983300000e+05
    5.8799791150e-03    2.3863006250e+05
    5.8897780254e-03    2.3747993750e+05
    5.8998265304e-03    2.3632068750e+05
    5.9098824859e-03    2.3518270312e+05
    5.9199496172e-03    2.3406750000e+05
    5.9297690168e-03    2.3299962500e+05
    5.9398324229e-03    2.3192481250e+05
    5.9499107301e-03    2.3086892188e+05
    5.9599950910e-03    2.2983375000e+05
    5.9698424302e-03    2.2884279688e+05
    5.9799263254e-03    2.2784793750e+05
    5.9897741303e-03    2.2689789062e+05
    5.9998789802e-03    2.2594029688e+05
    6.0099884868e-03    2.2499660938e+05
    6.0198511928e-03    2.2408929688e+05
    6.0299579054e-03    2.2317520312e+05
    6.0398345813e-03    2.2230082812e+05
    6.0499594547e-03    2.2142829688e+05
    6.0598449782e-03    2.2060132812e+05
    6.0699707828e-03    2.1977257812e+05
    6.0798567720e-03    2.1898220312e+05
    6.0897562653e-03    2.1819389062e+05
    6.0998992994e-03    2.1740042188e+05
    6.1098043807e-03    2.1663582812e+05
    6.1199488118e-03    2.1586762500e+05
    6.1298627406e-03    2.1513445312e+05
    6.1397748068e-03    2.1441529688e+05
    6.1499378644e-03    2.1369375000e+05
    6.1598625034e-03    2.1300026562e+05
    6.1697820202e-03    2.1232168750e+05
    6.1799669638e-03    2.1163729688e+05
    6.1898906715e-03    2.1098462500e+05
    6.1998274177e-03    2.1034550000e+05
    6.2097678892e-03    2.0971739062e+05
    6.2199598178e-03    2.0908887500e+05
    6.2299082056e-03    2.0848817188e+05
    6.2398463488e-03    2.0790054688e+05
    6.2498059124e-03    2.0732660938e+05
    6.2597673386e-03    2.0676557812e+05
    6.2699834816e-03    2.0620093750e+05
    6.2799425796e-03    2.0566273438e+05
    6.2898998149e-03    2.0513510938e+05
    6.2998742796e-03    2.0461242188e+05
    6.3098510727e-03    2.0409498438e+05
    6.3198353164e-03    2.0358200000e+05
    6.3298195601e-03    2.0307518750e+05
    6.3398010097e-03    2.0257593750e+05
    6.3497810625e-03    2.0208582812e+05
    6.3597578555e-03    2.0160570312e+05
    6.3699851744e-03    2.0112450000e+05
    6.3799703494e-03    2.0066087500e+05
    6.3899629749e-03    2.0019643750e+05
    6.3999528065e-03    1.9972764062e+05
    6.4099398442e-03    1.9925268750e+05
    6.4199254848e-03    1.9877357812e+05
    6.4299101941e-03    1.9829468750e+05
    6.4398930408e-03    1.9781901562e+05
    6.4498772845e-03    1.9734392188e+05
    6.4598657191e-03    1.9686532812e+05
    6.4698611386e-03    1.9637900000e+05
    6.4798588865e-03    1.9588687500e+05
    6.4898552373e-03    1.9538976562e+05
    6.4998497255e-03    1.9489282812e+05
    6.5098432824e-03    1.9439517188e+05
    6.5198359080e-03    1.9389607812e+05
    6.5298285335e-03    1.9339510938e+05
    6.5398206934e-03    1.9289143750e+05
    6.5498137847e-03    1.9238801562e+05
    6.5598078072e-03    1.9188510938e+05
    6.5698008984e-03    1.9138398438e+05
    6.5797939897e-03    1.9088264062e+05
    6.5897866152e-03    1.9038087500e+05
    6.5997792408e-03    1.8988217188e+05
    6.6097718664e-03    1.8938520312e+05
    6.6197640263e-03    1.8888832812e+05
    6.6297561862e-03    1.8839712500e+05
    6.6399974748e-03    1.8789279688e+05
    6.6499891691e-03    1.8740617188e+05
    6.6599803977e-03    1.8691935938e+05
    6.6699711606e-03    1.8643781250e+05
    6.6799619235e-03    1.8595842188e+05
    6.6899522208e-03    1.8548026562e+05
    6.6999420524e-03    1.8500482812e+05
    6.7099318840e-03    1.8453137500e+05
    6.7199207842e-03    1.8406248438e+05
    6.7299096845e-03    1.8359750000e+05
    6.7398981191e-03    1.8313367188e+05
    6.7498865537e-03    1.8267262500e+05
    6.7598740570e-03    1.8221557812e+05
    6.7698615603e-03    1.8176189062e+05
    6.7798495293e-03    1.8130854688e+05
    6.7898379639e-03    1.8085929688e+05
    6.7998277955e-03    1.8041354688e+05
    6.8098190241e-03    1.7996917188e+05
    6.8198107183e-03    1.7952707812e+05
    6.8298010156e-03    1.7909032812e+05
    6.8397899158e-03    1.7865376562e+05
    6.8497778848e-03    1.7822051562e+05
    6.8597653881e-03    1.7779229688e+05
    6.8697514944e-03    1.7736542188e+05
    6.8799885921e-03    1.7692982812e+05
    6.8899802864e-03    1.7650960938e+05
    6.8999752402e-03    1.7609185938e+05
    6.9099701941e-03    1.7567545312e+05
    6.9199637510e-03    1.7526093750e+05
    6.9299563766e-03    1.7485151562e+05
    6.9399485365e-03    1.7444259375e+05
    6.9499406964e-03    1.7403703125e+05
    6.9599309936e-03    1.7363453125e+05
    6.9699240848e-03    1.7323375000e+05
    6.9799218327e-03    1.7283612500e+05
    6.9899191149e-03    1.7243932812e+05
    6.9999145344e-03    1.7204571875e+05
    7.0099099539e-03    1.7165395312e+05
    7.0199039765e-03    1.7126515625e+05
    7.0298993960e-03    1.7087882812e+05
    7.0398999378e-03    1.7049495312e+05
    7.0499004796e-03    1.7011320312e+05
    7.0599000901e-03    1.6973357812e+05
    7.0698992349e-03    1.6935568750e+05
    7.0798969828e-03    1.6898003125e+05
    7.0898970589e-03    1.6860648438e+05
    7.0999008603e-03    1.6823560938e+05
    7.1099037305e-03    1.6786657812e+05
    7.1199061349e-03    1.6750079688e+05
    7.1299076080e-03    1.6713768750e+05
    7.1399090812e-03    1.6677692188e+05
    7.1499147452e-03    1.6641667188e+05
    7.1599204093e-03    1.6605859375e+05
    7.1699256077e-03    1.6570198438e+05
    7.1799298748e-03    1.6534476562e+05
    7.1899336763e-03    1.6498957812e+05
    7.1999416687e-03    1.6463660938e+05
    7.2099491954e-03    1.6428664062e+05
    7.2199562564e-03    1.6393910938e+05
    7.2299623862e-03    1.6359420312e+05
    7.2399699129e-03    1.6325087500e+05
    7.2499797679e-03    1.6290921875e+05
    7.2599882260e-03    1.6256942188e+05
    7.2699966840e-03    1.6223123438e+05
    7.2797546163e-03    1.6190356250e+05
    7.2897649370e-03    1.6156828125e+05
    7.2997747920e-03    1.6123476562e+05
    7.3097841814e-03    1.6090223438e+05
    7.3197935708e-03    1.6057134375e+05
    7.3298038915e-03    1.6024196875e+05
    7.3398137465e-03    1.5991401562e+05
    7.3498236015e-03    1.5958754688e+05
    7.3598329909e-03    1.5926217188e+05
    7.3698428459e-03    1.5893892188e+05
    7.3798527010e-03    1.5861728125e+05
    7.3898620903e-03    1.5829810938e+05
    7.3998714797e-03    1.5798035938e+05
    7.4098813348e-03    1.5766378125e+05
    7.4198907241e-03    1.5734787500e+05
    7.4298996478e-03    1.5703246875e+05
    7.4399085715e-03    1.5671784375e+05
    7.4499179609e-03    1.5640575000e+05
    7.4599264190e-03    1.5609560938e+05
    7.4699348770e-03    1.5578625000e+05
    7.4799433351e-03    1.5547790625e+05
    7.4899513274e-03    1.5517079688e+05
    7.4999593198e-03    1.5486496875e+05
    7.5099673122e-03    1.5456000000e+05
    7.5199748389e-03    1.5425640625e+05
    7.5299823657e-03    1.5395432812e+05
    7.5399898924e-03    1.5365345312e+05
    7.5499969535e-03    1.5335320312e+05
    7.5597544201e-03    1.5306115625e+05
    7.5697619468e-03    1.5276137500e+05
    7.5797699392e-03    1.5246215625e+05
    7.5897783972e-03    1.5216312500e+05
    7.5997863896e-03    1.5186562500e+05
    7.6097967103e-03    1.5156909375e+05
    7.6198070310e-03    1.5127429688e+05
    7.6298196800e-03    1.5098079688e+05
    7.6398341917e-03    1.5068817188e+05
    7.6498510316e-03    1.5039598438e+05
    7.6598711312e-03    1.5010382812e+05
    7.6698916964e-03    1.4981334375e+05
    7.6799113303e-03    1.4952615625e+05
    7.6899304986e-03    1.4924195312e+05
    7.6999492012e-03    1.4895676562e+05
    7.7099683695e-03    1.4866710938e+05
    7.7199866064e-03    1.4837278125e+05
    7.7297552489e-03    1.4808887500e+05
    7.7397739515e-03    1.4780821875e+05
    7.7497931197e-03    1.4753560938e+05
    7.7598141506e-03    1.4725982812e+05
    7.7698351815e-03    1.4696890625e+05
    7.7798571438e-03    1.4666529688e+05
    7.7898800373e-03    1.4637014062e+05
    7.7999075875e-03    1.4609737500e+05
    7.8099411912e-03    1.4584448438e+05
    7.8199747950e-03    1.4559648438e+05
    7.8297620639e-03    1.4533032812e+05
    7.8398035839e-03    1.4502407812e+05
    7.8498506919e-03    1.4470617188e+05
    7.8599005938e-03    1.4440342188e+05
    7.8699504957e-03    1.4412471875e+05
    7.8797517344e-03    1.4387607812e+05
    7.8898072243e-03    1.4363695312e+05
    7.8998664394e-03    1.4340021875e+05
    7.9099275172e-03    1.4314748438e+05
    7.9199895263e-03    1.4286996875e+05
    7.9298093915e-03    1.4258129688e+05
    7.9398974776e-03    1.4227943750e+05
    7.9499911517e-03    1.4198371875e+05
    7.9598361626e-03    1.4170523438e+05
    7.9699354246e-03    1.4143137500e+05
    7.9797822982e-03    1.4117403125e+05
    7.9898815602e-03    1.4091595312e+05
    7.9999789596e-03    1.4065600000e+05
    8.0098239705e-03    1.4039810938e+05
    8.0199213699e-03    1.4013085938e+05
    8.0297701061e-03    1.3986951562e+05
    8.0398721620e-03    1.3960403125e+05
    8.0499742180e-03    1.3933884375e+05
    8.0598229542e-03    1.3908021875e+05
    8.0699231476e-03    1.3881512500e+05
    8.0797718838e-03    1.3855646875e+05
    8.0898730084e-03    1.3829048438e+05
    8.0999750644e-03    1.3802548438e+05
    8.1098228693e-03    1.3776693750e+05
    8.1199249253e-03    1.3750075000e+05
    8.1297745928e-03    1.3724298438e+05
    8.1398803741e-03    1.3697928125e+05
    8.1499861553e-03    1.3671723438e+05
    8.1598423421e-03    1.3646271875e+05
    8.1699499860e-03    1.3620240625e+05
    8.1798136234e-03    1.3594860938e+05
    8.1899361685e-03    1.3568929688e+05
    8.1998081878e-03    1.3543817188e+05
    8.2099363208e-03    1.3518301562e+05
    8.2198167220e-03    1.3493665625e+05
    8.2299597561e-03    1.3468567188e+05
    8.2398531958e-03    1.3444150000e+05
    8.2497494295e-03    1.3419515625e+05
    8.2599110901e-03    1.3393717188e+05
    8.2698222250e-03    1.3367860938e+05
    8.2799931988e-03    1.3340771875e+05
    8.2899080589e-03    1.3314181250e+05
    8.2998350263e-03    1.3288104688e+05
    8.3097722381e-03    1.3263198438e+05
    8.3199730143e-03    1.3238940625e+05
    8.3299176767e-03    1.3215992188e+05
    8.3398614079e-03    1.3192710938e+05
    8.3498135209e-03    1.3168310938e+05
    8.3597805351e-03    1.3142689062e+05
    8.3697522059e-03    1.3116537500e+05
    8.3799809217e-03    1.3089946875e+05
    8.3899507299e-03    1.3064653906e+05
    8.3999270573e-03    1.3040157031e+05
    8.4099164233e-03    1.3016421094e+05
    8.4199141711e-03    1.2992947656e+05
    8.4299109876e-03    1.2968988281e+05
    8.4399078041e-03    1.2943790625e+05
    8.4499092773e-03    1.2917666406e+05
    8.4599219263e-03    1.2891846094e+05
    8.4699438885e-03    1.2867261719e+05
    8.4799695760e-03    1.2843808594e+05
    8.4899943322e-03    1.2820200781e+05
    8.4997648373e-03    1.2795978906e+05
    8.5097989067e-03    1.2770000781e+05
    8.5198385641e-03    1.2744227344e+05
    8.5298903286e-03    1.2719591406e+05
    8.5399392992e-03    1.2695865625e+05
    8.5499929264e-03    1.2671936719e+05
    8.5597913712e-03    1.2647468750e+05
    8.5698543116e-03    1.2621591406e+05
    8.5799256340e-03    1.2596212500e+05
    8.5897464305e-03    1.2572596875e+05
    8.5998186842e-03    1.2548828125e+05
    8.6099002510e-03    1.2524155469e+05
    8.6199846119e-03    1.2498472656e+05
    8.6298212409e-03    1.2473503125e+05
    8.6399242282e-03    1.2448917969e+05
    8.6497683078e-03    1.2425421094e+05
    8.6598657072e-03    1.2400541406e+05
    8.6699724197e-03    1.2374764844e+05
    8.6798304692e-03    1.2349910156e+05
    8.6899530143e-03    1.2325361719e+05
    8.6998241022e-03    1.2301532031e+05
    8.7099494413e-03    1.2276508594e+05
    8.7198140100e-03    1.2251722656e+05
    8.7299449369e-03    1.2227219531e+05
    8.7398318574e-03    1.2203610156e+05
    8.7499804795e-03    1.2178575000e+05
    8.7598729879e-03    1.2153009375e+05
    8.7697580457e-03    1.2127163281e+05
    8.7799085304e-03    1.2101139844e+05
    8.7898066267e-03    1.2076291406e+05
    8.7999776006e-03    1.2050902344e+05
    8.8098887354e-03    1.2026702344e+05
    8.8198026642e-03    1.2003224219e+05
    8.8299699128e-03    1.1979043750e+05
    8.8398829103e-03    1.1954687500e+05
    8.8498117402e-03    1.1929878125e+05
    8.8597461581e-03    1.1905091406e+05
    8.8699404150e-03    1.1879353906e+05
    8.8798757643e-03    1.1853639844e+05
    8.8898083195e-03    1.1827822656e+05
    8.8997418061e-03    1.1802271094e+05
    8.9099584147e-03    1.1776035156e+05
    8.9199123904e-03    1.1750500781e+05
    8.9298635721e-03    1.1725293750e+05
    8.9398194104e-03    1.1700608594e+05
    8.9497789741e-03    1.1676196875e+05
    8.9599993080e-03    1.1651227344e+05
    8.9699709788e-03    1.1626863281e+05
    8.9799445122e-03    1.1602293750e+05
    8.9899217710e-03    1.1576968750e+05
    8.9999036863e-03    1.1551011719e+05
    9.0098911896e-03    1.1524680469e+05
    9.0198805556e-03    1.1498353125e+05
    9.0298745781e-03    1.1472165625e+05
    9.0398611501e-03    1.1446493750e+05
    9.0498551726e-03    1.1421267969e+05
    9.0598631650e-03    1.1396221094e+05
    9.0698748827e-03    1.1371188281e+05
    9.0798912570e-03    1.1346021094e+05
    9.0899085626e-03    1.1320572656e+05
    9.0999156237e-03    1.1294743750e+05
    9.1099264100e-03    1.1268578906e+05
    9.1199558228e-03    1.1242164844e+05
    9.1299861670e-03    1.1215803906e+05
    9.1397566721e-03    1.1190400000e+05
    9.1497953981e-03    1.1164521875e+05
    9.1598276049e-03    1.1138625000e+05
    9.1698532924e-03    1.1112478906e+05
    9.1798976064e-03    1.1085865625e+05
    9.1899503022e-03    1.1059243750e+05
    9.1997394338e-03    1.1033681250e+05
    9.2097911984e-03    1.1007775000e+05
    9.2198448256e-03    1.0982267969e+05
    9.2299040407e-03    1.0956464844e+05
    9.2399660498e-03    1.0930308594e+05
    9.2497728765e-03    1.0904391406e+05
    9.2598488554e-03    1.0877772656e+05
    9.2699248344e-03    1.0851446875e+05
    9.2799933627e-03    1.0825566406e+05
    9.2898095027e-03    1.0800515625e+05
    9.2999013141e-03    1.0774367969e+05
    9.3099931255e-03    1.0747747656e+05
    9.3198167160e-03    1.0721275781e+05
    9.3299122527e-03    1.0693972656e+05
    9.3397358432e-03    1.0667772656e+05
    9.3498285860e-03    1.0641118750e+05
    9.3599343672e-03    1.0614575000e+05
    9.3697831035e-03    1.0588644531e+05
    9.3798991293e-03    1.0561691406e+05
    9.3897506595e-03    1.0535325000e+05
    9.3998713419e-03    1.0508580469e+05
    9.4099817798e-03    1.0482427344e+05
    9.4198323786e-03    1.0457296094e+05
    9.4299614429e-03    1.0431278125e+05
    9.4398278743e-03    1.0405235156e+05
    9.4499662519e-03    1.0377618750e+05
    9.4598419964e-03    1.0350211719e+05
    9.4699813053e-03    1.0322127344e+05
    9.4798505306e-03    1.0295302344e+05
    9.4899823889e-03    1.0268464844e+05
    9.4998590648e-03    1.0242883594e+05
    9.5097506419e-03    1.0217686719e+05
    9.5199095085e-03    1.0191941406e+05
    9.5298038796e-03    1.0166683594e+05
    9.5399636775e-03    1.0140259375e+05
    9.5498543233e-03    1.0113972656e+05
    9.5597365871e-03    1.0087208594e+05
    9.5698982477e-03    1.0059346875e+05
    9.5798075199e-03    1.0032069531e+05
    9.5899868757e-03    1.0004146094e+05
    9.5998980105e-03    9.9771429688e+04
    9.6098054200e-03    9.9503187500e+04
    9.6199819818e-03    9.9229000000e+04
    9.6298931167e-03    9.8963531250e+04
    9.6398089081e-03    9.8700632812e+04
    9.6497340128e-03    9.8440960938e+04
    9.6599319950e-03    9.8176335938e+04
    9.6698636189e-03    9.7917875000e+04
    9.6797933802e-03    9.7657320312e+04
    9.6899820492e-03    9.7387585938e+04
    9.6999118105e-03    9.7121945312e+04
    9.7098536789e-03    9.6855539062e+04
    9.7197983414e-03    9.6590664062e+04
    9.7297420725e-03    9.6326023438e+04
    9.7399614751e-03    9.6055648438e+04
    9.7499182448e-03    9.5792437500e+04
    9.7598684952e-03    9.5529601562e+04
    9.7698168829e-03    9.5266929688e+04
    9.7797755152e-03    9.5002468750e+04
    9.7897425294e-03    9.4738406250e+04
    9.7999796271e-03    9.4466570312e+04
    9.8099466413e-03    9.4202523438e+04
    9.8199183121e-03    9.3936718750e+04
    9.8298955709e-03    9.3668164062e+04
    9.8398653790e-03    9.3399125000e+04
    9.8498417065e-03    9.3131054688e+04
    9.8598236218e-03    9.2863843750e+04
    9.8698111251e-03    9.2598773438e+04
    9.8798032850e-03    9.2337562500e+04
    9.8897973076e-03    9.2079210938e+04
    9.8997969180e-03    9.1820843750e+04
    9.9097955972e-03    9.1562687500e+04
    9.9197914824e-03    9.1303632812e+04
    9.9297882989e-03    9.1040914062e+04
    9.9397916347e-03    9.0775250000e+04
    9.9498005584e-03    9.0507835938e+04
    9.9598160014e-03    9.0236726562e+04
    9.9698361009e-03    8.9962914062e+04
    9.9798589945e-03    8.9688468750e+04
    9.9898781627e-03    8.9413187500e+04
    9.9998945370e-03    8.9136398438e+04
    1.0009909980e-02    8.8858960938e+04
    1.0019929148e-02    8.8581773438e+04
    1.0029963218e-02    8.8304507812e+04
    1.0039732791e-02    8.8035570312e+04
    1.0049775243e-02    8.7761914062e+04
    1.0059817694e-02    8.7490601562e+04
    1.0069858283e-02    8.7222046875e+04
    1.0079895146e-02    8.6955078125e+04
    1.0089927353e-02    8.6687851562e+04
    1.0099967942e-02    8.6419257812e+04
    1.0109751485e-02    8.6155390625e+04
    1.0119815357e-02    8.5882414062e+04
    1.0129879229e-02    8.5609156250e+04
    1.0139942169e-02    8.5336867188e+04
    1.0149731301e-02    8.5074265625e+04
    1.0159787722e-02    8.4806742188e+04
    1.0169844143e-02    8.4541414062e+04
    1.0179909877e-02    8.4276710938e+04
    1.0189987719e-02    8.4012101562e+04
    1.0199801065e-02    8.3754250000e+04
    1.0209886357e-02    8.3489625000e+04
    1.0219969787e-02    8.3225796875e+04
    1.0229783133e-02    8.2970687500e+04
    1.0239868425e-02    8.2710445312e+04
    1.0249954648e-02    8.2452476562e+04
    1.0259777308e-02    8.2203203125e+04
    1.0269882157e-02    8.1947117188e+04
    1.0279990733e-02    8.1687859375e+04
    1.0289821774e-02    8.1428242188e+04
    1.0299926624e-02    8.1144710938e+04
    1.0309765115e-02    8.0840343750e+04
    1.0319881141e-02    8.0486453125e+04
    1.0329727083e-02    8.0096679688e+04
    1.0339851491e-02    7.9652523438e+04
    1.0349984281e-02    7.9172757812e+04
    1.0359848849e-02    7.8682335938e+04
    1.0369985364e-02    7.8162906250e+04
    1.0379848070e-02    7.7648500000e+04
    1.0389989242e-02    7.7114398438e+04
    1.0399861261e-02    7.6591914062e+04
    1.0409732349e-02    7.6068632812e+04
    1.0419879109e-02    7.5531062500e+04
    1.0429759510e-02    7.5008882812e+04
    1.0439915583e-02    7.4474078125e+04
    1.0449797846e-02    7.3956109375e+04
    1.0459965095e-02    7.3425945312e+04
    1.0469862260e-02    7.2912453125e+04
    1.0479761288e-02    7.2401648438e+04
    1.0489935055e-02    7.1879804688e+04
    1.0499834083e-02    7.1375406250e+04
    1.0509731248e-02    7.0874429688e+04
    1.0519903153e-02    7.0363187500e+04
    1.0529799387e-02    6.9869164062e+04
    1.0539968498e-02    6.9364523438e+04
    1.0549862869e-02    6.8876640625e+04
    1.0559757240e-02    6.8392429688e+04
    1.0569927283e-02    6.7898484375e+04
    1.0579822585e-02    6.7420953125e+04
    1.0589992628e-02    6.6933492188e+04
    1.0599886999e-02    6.6462554688e+04
    1.0609782301e-02    6.5994671875e+04
    1.0619955137e-02    6.5516871094e+04
    1.0629854165e-02    6.5055089844e+04
    1.0639752261e-02    6.4596667969e+04
    1.0649924167e-02    6.4129031250e+04
    1.0659820400e-02    6.3677753906e+04
    1.0669990443e-02    6.3217738281e+04
    1.0679883882e-02    6.2773609375e+04
    1.0689777322e-02    6.2332550781e+04
    1.0699944571e-02    6.1882187500e+04
    1.0709838942e-02    6.1446765625e+04
    1.0719733313e-02    6.1014187500e+04
    1.0729904287e-02    6.0572832031e+04
    1.0739800520e-02    6.0146621094e+04
    1.0749970563e-02    5.9711660156e+04
    1.0759864934e-02    5.9291074219e+04
    1.0769757442e-02    5.8872859375e+04
    1.0779924691e-02    5.8445644531e+04
    1.0789816268e-02    5.8032937500e+04
    1.0799982585e-02    5.7612207031e+04
    1.0809874162e-02    5.7206390625e+04
    1.0819766670e-02    5.6803886719e+04
    1.0829933919e-02    5.6393160156e+04
    1.0839825496e-02    5.5995941406e+04
    1.0849990882e-02    5.5589917969e+04
    1.0859880596e-02    5.5197097656e+04
    1.0869769379e-02    5.4807074219e+04
    1.0879932903e-02    5.4409574219e+04
    1.0889822617e-02    5.4025449219e+04
    1.0899986140e-02    5.3633488281e+04
    1.0909874924e-02    5.3255175781e+04
    1.0919762775e-02    5.2878707031e+04
    1.0929924436e-02    5.2494394531e+04
    1.0939811356e-02    5.2123269531e+04
    1.0949971154e-02    5.1744125000e+04
    1.0959857143e-02    5.1378183594e+04
    1.0969743133e-02    5.1014488281e+04
    1.0979903862e-02    5.0643269531e+04
    1.0989788920e-02    5.0284312500e+04
    1.0999947786e-02    4.9917843750e+04
    1.1009831913e-02    4.9563808594e+04
    1.1019988917e-02    4.9202535156e+04
    1.1029872112e-02    4.8853371094e+04
    1.1039756238e-02    4.8506480469e+04
    1.1049916036e-02    4.8152402344e+04
    1.1059801094e-02    4.7810265625e+04
    1.1069960892e-02    4.7460832031e+04
    1.1079845019e-02    4.7123046875e+04
    1.1089729145e-02    4.6787222656e+04
    1.1099893600e-02    4.6443906250e+04
    1.1109785177e-02    4.6111957031e+04
    1.1119954288e-02    4.5773011719e+04
    1.1129850522e-02    4.5445425781e+04
    1.1139744893e-02    4.5120171875e+04
    1.1149914004e-02    4.4788191406e+04
    1.1159805581e-02    4.4467250000e+04
    1.1169971898e-02    4.4139675781e+04
    1.1179861613e-02    4.3823292969e+04
    1.1189752258e-02    4.3508714844e+04
    1.1199918576e-02    4.3187445312e+04
    1.1209812015e-02    4.2877207031e+04
    1.1219983920e-02    4.2559750000e+04
    1.1229883879e-02    4.2252574219e+04
    1.1239781976e-02    4.1947496094e+04
    1.1249954812e-02    4.1635800781e+04
    1.1259850115e-02    4.1335007812e+04
    1.1269745417e-02    4.1036242188e+04
    1.1279914528e-02    4.0731238281e+04
    1.1289807037e-02    4.0436332031e+04
    1.1299975216e-02    4.0135046875e+04
    1.1309866793e-02    3.9843832031e+04
    1.1319758371e-02    3.9554503906e+04
    1.1329924688e-02    3.9259152344e+04
    1.1339815333e-02    3.8973628906e+04
    1.1349980719e-02    3.8682023438e+04
    1.1359871365e-02    3.8400070312e+04
    1.1369762011e-02    3.8119902344e+04
    1.1379927397e-02    3.7833832031e+04
    1.1389817111e-02    3.7557300781e+04
    1.1399981566e-02    3.7275039062e+04
    1.1409869418e-02    3.7002468750e+04
    1.1419757269e-02    3.6732000000e+04
    1.1429918930e-02    3.6456058594e+04
    1.1439804919e-02    3.6189367188e+04
    1.1449965648e-02    3.5917246094e+04
    1.1459851637e-02    3.5654667969e+04
    1.1469736695e-02    3.5394273438e+04
    1.1479898356e-02    3.5129035156e+04
    1.1489785276e-02    3.4873875000e+04
    1.1499946006e-02    3.4615378906e+04
    1.1509832926e-02    3.4368617188e+04
    1.1519996449e-02    3.4122546875e+04
    1.1529888026e-02    3.3897531250e+04
    1.1539782397e-02    3.3713167969e+04
    1.1549952440e-02    3.3619566406e+04
    1.1559848674e-02    3.3682386719e+04
    1.1569744907e-02    3.3915773438e+04
    1.1579924263e-02    3.4255019531e+04
    1.1589838192e-02    3.4536339844e+04
    1.1599759571e-02    3.4746175781e+04
    1.1609961279e-02    3.4998722656e+04
    1.1619890109e-02    3.5338515625e+04
    1.1629821733e-02    3.5759394531e+04
    1.1639760807e-02    3.6271773438e+04
    1.1649983004e-02    3.6911535156e+04
    1.1659935117e-02    3.7626214844e+04
    1.1669888161e-02    3.8391363281e+04
    1.1679844931e-02    3.9154753906e+04
    1.1689833365e-02    3.9873730469e+04
    1.1699862778e-02    4.0527582031e+04
    1.1709931307e-02    4.1113046875e+04
    1.1719758622e-02    4.1621109375e+04
    1.1729905382e-02    4.2089375000e+04
    1.1739806272e-02    4.2501136719e+04
    1.1749743484e-02    4.2876558594e+04
    1.1759716086e-02    4.3220867188e+04
    1.1769722216e-02    4.3538281250e+04
    1.1779760942e-02    4.3832390625e+04
    1.1789824814e-02    4.4105519531e+04
    1.1799912900e-02    4.4360058594e+04
    1.1809731834e-02    4.4593019531e+04
    1.1819852516e-02    4.4821984375e+04
    1.1829986237e-02    4.5042410156e+04
    1.1839843355e-02    4.5249531250e+04
    1.1849711649e-02    4.5450488281e+04
    1.1859891005e-02    4.5651011719e+04
    1.1869807728e-02    4.5838203125e+04
    1.1879757047e-02    4.6016707031e+04
    1.1889741756e-02    4.6186769531e+04
    1.1899758130e-02    4.6349230469e+04
    1.1909803376e-02    4.6505578125e+04
    1.1919868179e-02    4.6657285156e+04
    1.1929947883e-02    4.6804550781e+04
    1.1939740740e-02    4.6943238281e+04
    1.1949841864e-02    4.7082292969e+04
    1.1959956028e-02    4.7218031250e+04
    1.1969788931e-02    4.7346886719e+04
    1.1979939416e-02    4.7476511719e+04
    1.1989810504e-02    4.7598917969e+04
    1.1999702081e-02    4.7717937500e+04
    1.2009910308e-02    4.7836988281e+04
    1.2019829825e-02    4.7948582031e+04
    1.2029756792e-02    4.8055753906e+04
    1.2039990164e-02    4.8161332031e+04
    1.2049931102e-02    4.8259316406e+04
    1.2059891596e-02    4.8353386719e+04
    1.2069895864e-02    4.8444449219e+04
    1.2079969049e-02    4.8533792969e+04
    1.2089840136e-02    4.8620343750e+04
    1.2099849060e-02    4.8708156250e+04
    1.2109708041e-02    4.8795066406e+04
    1.2119745836e-02    4.8883355469e+04
    1.2129973620e-02    4.8971675781e+04
    1.2139718048e-02    4.9053140625e+04
    1.2149976566e-02    4.9136074219e+04
    1.2159713544e-02    4.9213042969e+04
    1.2169961818e-02    4.9292761719e+04
    1.2179649435e-02    4.9366011719e+04
    1.2189842761e-02    4.9439683594e+04
    1.2199811637e-02    4.9508832031e+04
    1.2209915556e-02    4.9578394531e+04
    1.2219771743e-02    4.9647921875e+04
    1.2229751796e-02    4.9720527344e+04
    1.2239852920e-02    4.9794785156e+04
    1.2249679305e-02    4.9865988281e+04
    1.2259617448e-02    4.9935902344e+04
    1.2269666418e-02    5.0004542969e+04
    1.2279825285e-02    5.0072199219e+04
    1.2289680541e-02    5.0136488281e+04
    1.2299633585e-02    5.0200878906e+04
    1.2309685349e-02    5.0266796875e+04
    1.2319839559e-02    5.0335199219e+04
    1.2329666875e-02    5.0402863281e+04
    1.2339587323e-02    5.0471859375e+04
    1.2349599041e-02    5.0541371094e+04
    1.2359695509e-02    5.0610550781e+04
    1.2369871140e-02    5.0678769531e+04
    1.2379676104e-02    5.0743214844e+04
    1.2389998883e-02    5.0810542969e+04
    1.2399937958e-02    5.0875917969e+04
    1.2409931980e-02    5.0943015625e+04
    1.2419967912e-02    5.1011937500e+04
    1.2429579161e-02    5.1079027344e+04
    1.2439681217e-02    5.1149894531e+04
    1.2449822389e-02    5.1220277344e+04
    1.2459997088e-02    5.1289546875e+04
    1.2469753623e-02    5.1354988281e+04
    1.2479539029e-02    5.1420484375e+04
    1.2489832006e-02    5.1489957031e+04
    1.2499707751e-02    5.1557503906e+04
    1.2509612367e-02    5.1626667969e+04
    1.2519557029e-02    5.1697582031e+04
    1.2529558502e-02    5.1769542969e+04
    1.2539583258e-02    5.1841406250e+04
    1.2549650855e-02    5.1912550781e+04
    1.2559752911e-02    5.1982769531e+04
    1.2569868937e-02    5.2052921875e+04
    1.2579594739e-02    5.2120691406e+04
    1.2589777820e-02    5.2192781250e+04
    1.2599554844e-02    5.2263652344e+04
    1.2609833851e-02    5.2339750000e+04
    1.2619663961e-02    5.2413218750e+04
    1.2629491277e-02    5.2486468750e+04
    1.2639933266e-02    5.2562906250e+04
    1.2649807148e-02    5.2634140625e+04
    1.2659813277e-02    5.2705261719e+04
    1.2669782154e-02    5.2777062500e+04
    1.2679792009e-02    5.2849125000e+04
    1.2689872645e-02    5.2921511719e+04
    1.2699970976e-02    5.2994269531e+04
    1.2709559873e-02    5.3064175781e+04
    1.2719715945e-02    5.3142503906e+04
    1.2729857117e-02    5.3225988281e+04
    1.2739540078e-02    5.3307324219e+04
    1.2749782763e-02    5.3390171875e+04
    1.2759525329e-02    5.3465281250e+04
    1.2769806199e-02    5.3542386719e+04
    1.2779623270e-02    5.3615765625e+04
    1.2789461762e-02    5.3688183594e+04
    1.2799891643e-02    5.3763957031e+04
    1.2809853069e-02    5.3835957031e+04
    1.2819757685e-02    5.3908035156e+04
    1.2829690240e-02    5.3982675781e+04
    1.2839641422e-02    5.4058996094e+04
    1.2849628925e-02    5.4136527344e+04
    1.2859642506e-02    5.4215500000e+04
    1.2869673781e-02    5.4295800781e+04
    1.2879777700e-02    5.4377980469e+04
    1.2889886275e-02    5.4460855469e+04
    1.2899923138e-02    5.4543863281e+04
    1.2909565121e-02    5.4623812500e+04
    1.2919678353e-02    5.4708605469e+04
    1.2929833494e-02    5.4794515625e+04
    1.2939509936e-02    5.4875574219e+04
    1.2949711643e-02    5.4961824219e+04
    1.2959944084e-02    5.5048421875e+04
    1.2969676405e-02    5.5129984375e+04
    1.2979949825e-02    5.5216386719e+04
    1.2989712879e-02    5.5297183594e+04
    1.2999997474e-02    5.5382558594e+04
    1.3009795919e-02    5.5463027344e+04
    1.3019625098e-02    5.5543792969e+04
    1.3029869646e-02    5.5629136719e+04
    1.3039551675e-02    5.5710296875e+04
    1.3049627654e-02    5.5796113281e+04
    1.3059504330e-02    5.5881406250e+04
    1.3069646433e-02    5.5969734375e+04
    1.3079969212e-02    5.6059714844e+04
    1.3089959510e-02    5.6146511719e+04
    1.3099630363e-02    5.6230816406e+04
    1.3109866530e-02    5.6321136719e+04
    1.3119742274e-02    5.6409171875e+04
    1.3129674830e-02    5.6497738281e+04
    1.3139628805e-02    5.6585847656e+04
    1.3149937615e-02    5.6676441406e+04
    1.3159801252e-02    5.6763234375e+04
    1.3169910759e-02    5.6853503906e+04
    1.3179849833e-02    5.6944199219e+04
    1.3189877383e-02    5.7036828125e+04
    1.3199891895e-02    5.7129386719e+04
    1.3209781609e-02    5.7219964844e+04
    1.3219909742e-02    5.7310824219e+04
    1.3229783624e-02    5.7398425781e+04
    1.3239925727e-02    5.7489925781e+04
    1.3249917887e-02    5.7583542969e+04
    1.3259931467e-02    5.7681437500e+04
    1.3269877061e-02    5.7779644531e+04
    1.3279952109e-02    5.7878769531e+04
    1.3289879076e-02    5.7974003906e+04
    1.3299959712e-02    5.8068332031e+04
    1.3309889473e-02    5.8160230469e+04
    1.3319970109e-02    5.8253730469e+04
    1.3329872862e-02    5.8346812500e+04
    1.3339882717e-02    5.8443050781e+04
    1.3349807821e-02    5.8540746094e+04
    1.3359805569e-02    5.8640558594e+04
    1.3369848952e-02    5.8740691406e+04
    1.3379918411e-02    5.8839988281e+04
    1.3389961794e-02    5.8937843750e+04
    1.3399939053e-02    5.9034074219e+04
    1.3409812935e-02    5.9128925781e+04
    1.3419795781e-02    5.9224863281e+04
    1.3429848477e-02    5.9322105469e+04
    1.3439977542e-02    5.9421253906e+04
    1.3449942693e-02    5.9520394531e+04
    1.3459973037e-02    5.9621050781e+04
    1.3469813392e-02    5.9720519531e+04
    1.3479931280e-02    5.9823312500e+04
    1.3489863835e-02    5.9924781250e+04
    1.3499830849e-02    6.0027781250e+04
    1.3509835117e-02    6.0132328125e+04
    1.3519867323e-02    6.0238144531e+04
    1.3529933058e-02    6.0345125000e+04
    1.3539795764e-02    6.0450433594e+04
    1.3549922965e-02    6.0559402344e+04
    1.3559830375e-02    6.0666949219e+04
    1.3569781557e-02    6.0775925781e+04
    1.3579959050e-02    6.0888214844e+04
    1.3589960523e-02    6.0998859375e+04
    1.3599947095e-02    6.1109714844e+04
    1.3609987684e-02    6.1221355469e+04
    1.3619785197e-02    6.1330687500e+04
    1.3629854657e-02    6.1442941406e+04
    1.3639944606e-02    6.1555574219e+04
    1.3649795204e-02    6.1665472656e+04
    1.3659924269e-02    6.1778449219e+04
    1.3669827953e-02    6.1889441406e+04
    1.3679992408e-02    6.2005417969e+04
    1.3689928688e-02    6.2122722656e+04
    1.3699905016e-02    6.2246425781e+04
    1.3709885068e-02    6.2376886719e+04
    1.3719878159e-02    6.2512558594e+04
    1.3729905710e-02    6.2649347656e+04
    1.3739938848e-02    6.2781222656e+04
    1.3749984093e-02    6.2904640625e+04
    1.3759819791e-02    6.3018074219e+04
    1.3769908808e-02    6.3132019531e+04
    1.3779997826e-02    6.3249390625e+04
    1.3789877295e-02    6.3370371094e+04
    1.3799774460e-02    6.3496175781e+04
    1.3809905387e-02    6.3625675781e+04
    1.3819822110e-02    6.3750425781e+04
    1.3829762116e-02    6.3874468750e+04
    1.3839937747e-02    6.4003144531e+04
    1.3849884272e-02    6.4131375000e+04
    1.3859863393e-02    6.4260824219e+04
    1.3869838789e-02    6.4389144531e+04
    1.3879817910e-02    6.4516191406e+04
    1.3889827766e-02    6.4643449219e+04
    1.3899841346e-02    6.4771765625e+04
    1.3909853995e-02    6.4901300781e+04
    1.3919891790e-02    6.5032511719e+04
    1.3929947279e-02    6.5165515625e+04
    1.3939990662e-02    6.5299328125e+04
    1.3949810527e-02    6.5430191406e+04
    1.3959903270e-02    6.5563898438e+04
    1.3969982974e-02    6.5696718750e+04
    1.3979816809e-02    6.5826593750e+04
    1.3989934698e-02    6.5961453125e+04
    1.3999802992e-02    6.6094242188e+04
    1.4009913430e-02    6.6230796875e+04
    1.4019802213e-02    6.6364015625e+04
    1.4029954560e-02    6.6500132812e+04
    1.4039859176e-02    6.6632890625e+04
    1.4049778692e-02    6.6766687500e+04
    1.4059958048e-02    6.6905515625e+04
    1.4069880359e-02    6.7042460938e+04
    1.4079819433e-02    6.7180570312e+04
    1.4089781791e-02    6.7319445312e+04
    1.4099990949e-02    6.7462609375e+04
    1.4109952375e-02    6.7603875000e+04
    1.4119930565e-02    6.7747609375e+04
    1.4129921794e-02    6.7893960938e+04
    1.4139912091e-02    6.8042375000e+04
    1.4149905182e-02    6.8192718750e+04
    1.4159915969e-02    6.8345664062e+04
    1.4169933274e-02    6.8501671875e+04
    1.4179958962e-02    6.8660960938e+04
    1.4189993963e-02    6.8823031250e+04
    1.4199779369e-02    6.8982960938e+04
    1.4209822752e-02    6.9149023438e+04
    1.4219883829e-02    6.9317921875e+04
    1.4229947701e-02    6.9490257812e+04
    1.4239761047e-02    6.9661648438e+04
    1.4249831438e-02    6.9840421875e+04
    1.4259918593e-02    7.0021976562e+04
    1.4269759879e-02    7.0201476562e+04
    1.4279851690e-02    7.0388437500e+04
    1.4289951883e-02    7.0578781250e+04
    1.4299808070e-02    7.0767578125e+04
    1.4309925959e-02    7.0964343750e+04
    1.4319797046e-02    7.1159000000e+04
    1.4329920523e-02    7.1361515625e+04
    1.4339799061e-02    7.1562187500e+04
    1.4349942096e-02    7.1771468750e+04
    1.4359837398e-02    7.1978562500e+04
    1.4369988814e-02    7.2194117188e+04
    1.4379884116e-02    7.2407617188e+04
    1.4389794320e-02    7.2624742188e+04
    1.4399968088e-02    7.2851015625e+04
    1.4409887604e-02    7.3074859375e+04
    1.4419808052e-02    7.3301937500e+04
    1.4429989271e-02    7.3538609375e+04
    1.4439927414e-02    7.3773210938e+04
    1.4449870214e-02    7.4011562500e+04
    1.4459810220e-02    7.4253570312e+04
    1.4469754882e-02    7.4499476562e+04
    1.4479963109e-02    7.4756078125e+04
    1.4489925466e-02    7.5010625000e+04
    1.4499888755e-02    7.5269453125e+04
    1.4509851113e-02    7.5532632812e+04
    1.4519819990e-02    7.5800367188e+04
    1.4529798180e-02    7.6072898438e+04
    1.4539779164e-02    7.6350343750e+04
    1.4549757354e-02    7.6632820312e+04
    1.4559992589e-02    7.6928007812e+04
    1.4569981024e-02    7.7221562500e+04
    1.4579980634e-02    7.7521195312e+04
    1.4589979313e-02    7.7826921875e+04
    1.4599979855e-02    7.8139031250e+04
    1.4609979466e-02    7.8457812500e+04
    1.4619986527e-02    7.8783867188e+04
    1.4629996382e-02    7.9117203125e+04
    1.4639745466e-02    7.9449421875e+04
    1.4649755321e-02    7.9798710938e+04
    1.4659769833e-02    8.0156945312e+04
    1.4669793658e-02    8.0524992188e+04
    1.4679822139e-02    8.0903656250e+04
    1.4689851552e-02    8.1293960938e+04
    1.4699880965e-02    8.1697250000e+04
    1.4709910378e-02    8.2114554688e+04
    1.4719938859e-02    8.2546750000e+04
    1.4729967341e-02    8.2995164062e+04
    1.4739994891e-02    8.3469406250e+04
    1.4749765396e-02    9.6338210938e+04
    1.4759792946e-02    1.1263175000e+05
    1.4769822359e-02    1.1240453906e+05
    1.4779851772e-02    1.1189122656e+05
    1.4789882116e-02    1.1147566406e+05
    1.4799914323e-02    1.1104434375e+05
    1.4809946530e-02    1.1063252344e+05
    1.4819979668e-02    1.1023125000e+05
    1.4829755761e-02    1.0985053906e+05
    1.4839788899e-02    1.0947071875e+05
    1.4849822037e-02    1.0910053906e+05
    1.4859855175e-02    1.0874028906e+05
    1.4869888313e-02    1.0838890625e+05
    1.4879921451e-02    1.0804727344e+05
    1.4889954589e-02    1.0771458594e+05
    1.4899988659e-02    1.0739109375e+05
    1.4909765683e-02    1.0708371094e+05
    1.4919801615e-02    1.0677687500e+05
    1.4929836616e-02    1.0647771094e+05
    1.4939873479e-02    1.0618634375e+05
    1.4949909411e-02    1.0590196875e+05
    1.4959947206e-02    1.0562428906e+05
    1.4969984069e-02    1.0535332031e+05
    1.4979765750e-02    1.0509544531e+05
    1.4989804476e-02    1.0483678906e+05
    1.4999844134e-02    1.0458471094e+05
    1.5009884723e-02    1.0433913281e+05
    1.5019925311e-02    1.0409936719e+05
    1.5029965900e-02    1.0386571094e+05
    1.5039750375e-02    1.0364130469e+05
    1.5049791895e-02    1.0341632031e+05
    1.5059835277e-02    1.0319749219e+05
    1.5069877729e-02    1.0298302344e+05
    1.5079921111e-02    1.0277460156e+05
    1.5089964494e-02    1.0257171094e+05
    1.5099750832e-02    1.0237865625e+05
    1.5109794214e-02    1.0218466406e+05
    1.5119838528e-02    1.0199460156e+05
    1.5129882842e-02    1.0180850000e+05
    1.5139926225e-02    1.0162635156e+05
    1.5149970539e-02    1.0144815625e+05
    1.5159756877e-02    1.0127834375e+05
    1.5169801190e-02    1.0110814844e+05
    1.5179848298e-02    1.0094211719e+05
    1.5189897269e-02    1.0078033594e+05
    1.5199950896e-02    1.0062221875e+05
    1.5209751204e-02    1.0047133594e+05
    1.5219811350e-02    1.0031953906e+05
    1.5229869634e-02    1.0017077344e+05
    1.5239926986e-02    1.0002533594e+05
    1.5249982476e-02    9.9883398438e+04
    1.5259780921e-02    9.9748539062e+04
    1.5269836411e-02    9.9613289062e+04
    1.5279890969e-02    9.9481164062e+04
    1.5289949253e-02    9.9350726562e+04
    1.5299751423e-02    9.9228031250e+04
    1.5309811570e-02    9.9103132812e+04
    1.5319871716e-02    9.8982085938e+04
    1.5329931863e-02    9.8864343750e+04
    1.5339992009e-02    9.8749250000e+04
    1.5349794179e-02    9.8639406250e+04
    1.5359856188e-02    9.8529179688e+04
    1.5369918197e-02    9.8421335938e+04
    1.5379979275e-02    9.8316351562e+04
    1.5389782377e-02    9.8216593750e+04
    1.5399843454e-02    9.8117085938e+04
    1.5409904532e-02    9.8019882812e+04
    1.5419966541e-02    9.7925257812e+04
    1.5429769643e-02    9.7835062500e+04
    1.5439831652e-02    9.7744437500e+04
    1.5449894592e-02    9.7655507812e+04
    1.5459957533e-02    9.7568117188e+04
    1.5469761565e-02    9.7485039062e+04
    1.5479823574e-02    9.7402007812e+04
    1.5489885584e-02    9.7321789062e+04
    1.5499947593e-02    9.7244648438e+04
    1.5509752557e-02    9.7172289062e+04
    1.5519815497e-02    9.7100562500e+04
    1.5529878438e-02    9.7030585938e+04
    1.5539941378e-02    9.6961570312e+04
    1.5549746342e-02    9.6895125000e+04
    1.5559809282e-02    9.6827960938e+04
    1.5569871292e-02    9.6762585938e+04
    1.5579934232e-02    9.6700476562e+04
    1.5589998104e-02    9.6640835938e+04
    1.5599803068e-02    9.6584945312e+04
    1.5609866939e-02    9.6529648438e+04
    1.5619929880e-02    9.6475562500e+04
    1.5629993752e-02    9.6422656250e+04
    1.5639798716e-02    9.6372585938e+04
    1.5649860725e-02    9.6322960938e+04
    1.5659924597e-02    9.6275367188e+04
    1.5669988468e-02    9.6229601562e+04
    1.5679793432e-02    9.6186617188e+04
    1.5689857304e-02    9.6144187500e+04
    1.5699921176e-02    9.6103335938e+04
    1.5709985048e-02    9.6064085938e+04
    1.5719790012e-02    9.6027492188e+04
    1.5729853883e-02    9.5991664062e+04
    1.5739917755e-02    9.5957320312e+04
    1.5749981627e-02    9.5924656250e+04
    1.5759786591e-02    9.5894156250e+04
    1.5769850463e-02    9.5864460938e+04
    1.5779914334e-02    9.5836156250e+04
    1.5789980069e-02    9.5809226562e+04
    1.5799785033e-02    9.5784914062e+04
    1.5809848905e-02    9.5760617188e+04
    1.5819912776e-02    9.5739054688e+04
    1.5829978511e-02    9.5717976562e+04
    1.5839783475e-02    9.5698617188e+04
    1.5849849209e-02    9.5681242188e+04
    1.5859913081e-02    9.5664664062e+04
    1.5869976953e-02    9.5649195312e+04
    1.5879783779e-02    9.5635437500e+04
    1.5889847651e-02    9.5622960938e+04
    1.5899911523e-02    9.5611929688e+04
    1.5909977257e-02    9.5602093750e+04
    1.5919784084e-02    9.5594039062e+04
    1.5929847956e-02    9.5587023438e+04
    1.5939911827e-02    9.5581273438e+04
    1.5949977562e-02    9.5576726562e+04
    1.5959784389e-02    9.5573289062e+04
    1.5969848260e-02    9.5571406250e+04
    1.5979913995e-02    9.5570476562e+04
    1.5989977866e-02    9.5571007812e+04
    1.5999784693e-02    9.5572085938e+04
    1.6009850428e-02    9.5574617188e+04
    1.6019914299e-02    9.5578343750e+04
    1.6029980034e-02    9.5583781250e+04
    1.6039786860e-02    9.5590726562e+04
    1.6049852595e-02    9.5598625000e+04
    1.6059916466e-02    9.5607562500e+04
    1.6069982201e-02    9.5616960938e+04
    1.6079790890e-02    9.5626945312e+04
    1.6089854762e-02    9.5638695312e+04
    1.6099920496e-02    9.5651210938e+04
    1.6109986231e-02    9.5666164062e+04
    1.6119793057e-02    9.5681968750e+04
    1.6129858792e-02    9.5698679688e+04
    1.6139926389e-02    9.5716156250e+04
    1.6149992123e-02    9.5734125000e+04
    1.6159798950e-02    9.5752085938e+04
    1.6169864684e-02    9.5771023438e+04
    1.6179932281e-02    9.5791132812e+04
    1.6189998016e-02    9.5812992188e+04
    1.6199806705e-02    9.5836554688e+04
    1.6209872440e-02    9.5862976562e+04
    1.6219940037e-02    9.5890757812e+04
    1.6229746863e-02    9.5917898438e+04
    1.6239814460e-02    9.5944726562e+04
    1.6249880195e-02    9.5970242188e+04
    1.6259947792e-02    9.5995085938e+04
    1.6269756481e-02    9.6019945312e+04
    1.6279824078e-02    9.6047398438e+04
    1.6289891675e-02    9.6077414062e+04
    1.6299959272e-02    9.6110031250e+04
    1.6309769824e-02    9.6144218750e+04
    1.6319837421e-02    9.6181164062e+04
    1.6329905018e-02    9.6218820312e+04
    1.6339972615e-02    9.6255945312e+04
    1.6349783167e-02    9.6290945312e+04
    1.6359850764e-02    9.6325164062e+04
    1.6369920224e-02    9.6358351562e+04
    1.6379987821e-02    9.6391101562e+04
    1.6389798373e-02    9.6423273438e+04
    1.6399867833e-02    9.6456945312e+04
    1.6409937292e-02    9.6491414062e+04
    1.6419747844e-02    9.6525867188e+04
    1.6429817304e-02    9.6562039062e+04
    1.6439884901e-02    9.6598726562e+04
    1.6449954361e-02    9.6635468750e+04
    1.6459764913e-02    9.6670812500e+04
    1.6469834372e-02    9.6706445312e+04
    1.6479903832e-02    9.6741570312e+04
    1.6489973292e-02    9.6776492188e+04
    1.6499785706e-02    9.6810375000e+04
    1.6509857029e-02    9.6844835938e+04
    1.6519926488e-02    9.6878898438e+04
    1.6529997811e-02    9.6912523438e+04
    1.6539810225e-02    9.6944601562e+04
    1.6549881548e-02    9.6976789062e+04
    1.6559951007e-02    9.7008250000e+04
    1.6569765285e-02    9.7038273438e+04
    1.6579836607e-02    9.7068726562e+04
    1.6589907929e-02    9.7098601562e+04
    1.6599979252e-02    9.7127875000e+04
    1.6609791666e-02    9.7155914062e+04
    1.6619862989e-02    9.7184492188e+04
    1.6629934311e-02    9.7212976562e+04
    1.6639748588e-02    9.7240867188e+04
    1.6649821773e-02    9.7269960938e+04
    1.6659893095e-02    9.7299750000e+04
    1.6669966280e-02    9.7330382812e+04
    1.6679782420e-02    9.7361039062e+04
    1.6689853743e-02    9.7393539062e+04
    1.6699926928e-02    9.7426976562e+04
    1.6709743068e-02    9.7459718750e+04
    1.6719814390e-02    9.7491789062e+04
    1.6729887575e-02    9.7520101562e+04
    1.6739962623e-02    9.7542460938e+04
    1.6749776900e-02    9.7557117188e+04
    1.6759851947e-02    9.7564710938e+04
    1.6769925132e-02    9.7566617188e+04
    1.6780000180e-02    9.7568148438e+04
    1.6789816320e-02    9.7575273438e+04
    1.6799889505e-02    9.7589007812e+04
    1.6809964553e-02    9.7608898438e+04
    1.6819780692e-02    9.7631585938e+04
    1.6829855740e-02    9.7655320312e+04
    1.6839930788e-02    9.7677179688e+04
    1.6849748790e-02    9.7695851562e+04
    1.6859823838e-02    9.7713257812e+04
    1.6869898885e-02    9.7730468750e+04
    1.6879973933e-02    9.7748351562e+04
    1.6889791936e-02    9.7766304688e+04
    1.6899866983e-02    9.7784101562e+04
    1.6909943894e-02    9.7800851562e+04
    1.6919760033e-02    9.7816367188e+04
    1.6929836944e-02    9.7832523438e+04
    1.6939913854e-02    9.7849773438e+04
    1.6949988902e-02    9.7868093750e+04
    1.6959808767e-02    9.7886460938e+04
    1.6969883814e-02    9.7905289062e+04
    1.6979960725e-02    9.7923656250e+04
    1.6989780590e-02    9.7940882812e+04
    1.6999857500e-02    9.7957843750e+04
    1.7009934410e-02    9.7974343750e+04
    1.7019754276e-02    9.7990468750e+04
    1.7029831186e-02    9.8007601562e+04
    1.7039908096e-02    9.8025523438e+04
    1.7049986869e-02    9.8043882812e+04
    1.7059804872e-02    9.8061679688e+04
    1.7069883645e-02    9.8079398438e+04
    1.7079960555e-02    9.8096500000e+04
    1.7089780420e-02    9.8112945312e+04
    1.7099859193e-02    9.8130093750e+04
    1.7109937966e-02    9.8147898438e+04
    1.7119757831e-02    9.8165789062e+04
    1.7129836604e-02    9.8184257812e+04
    1.7139915377e-02    9.8202429688e+04
    1.7149994150e-02    9.8220062500e+04
    1.7159814015e-02    9.8237000000e+04
    1.7169892788e-02    9.8254531250e+04
    1.7179971561e-02    9.8272351562e+04
    1.7189793289e-02    9.8290039062e+04
    1.7199872062e-02    9.8308382812e+04
    1.7209952697e-02    9.8326757812e+04
    1.7219772562e-02    9.8344593750e+04
    1.7229853198e-02    9.8362812500e+04
    1.7239931971e-02    9.8381007812e+04
    1.7249753699e-02    9.8398648438e+04
    1.7259834334e-02    9.8416507812e+04
    1.7269914970e-02    9.8434148438e+04
    1.7279993743e-02    9.8451757812e+04
    1.7289815471e-02    9.8469125000e+04
    1.7299896106e-02    9.8487343750e+04
    1.7309976742e-02    9.8505914062e+04
    1.7319800332e-02    9.8524070312e+04
    1.7329880968e-02    9.8542437500e+04
    1.7339961603e-02    9.8560429688e+04
    1.7349783331e-02    9.8577789062e+04
    1.7359865829e-02    9.8595726562e+04
    1.7369946465e-02    9.8613945312e+04
    1.7379770055e-02    9.8631867188e+04
    1.7389850691e-02    9.8650226562e+04
    1.7399933189e-02    9.8668460938e+04
    1.7409756780e-02    9.8686085938e+04
    1.7419837415e-02    9.8704093750e+04
    1.7429919913e-02    9.8722164062e+04
    1.7439743504e-02    9.8739898438e+04
    1.7449826002e-02    9.8758117188e+04
    1.7459908500e-02    9.8776335938e+04
    1.7469990999e-02    9.8794523438e+04
    1.7479814589e-02    9.8812226562e+04
    1.7489897087e-02    9.8830375000e+04
    1.7499979585e-02    9.8848445312e+04
    1.7509803176e-02    9.8866007812e+04
    1.7519885674e-02    9.8884007812e+04
    1.7529970035e-02    9.8901976562e+04
    1.7539793625e-02    9.8919445312e+04
    1.7549877986e-02    9.8937289062e+04
    1.7559960485e-02    9.8955148438e+04
    1.7569785938e-02    9.8972617188e+04
    1.7579868436e-02    9.8990617188e+04
    1.7589952797e-02    9.9008601562e+04
    1.7599778250e-02    9.9026085938e+04
    1.7609862611e-02    9.9043906250e+04
    1.7619945109e-02    9.9061617188e+04
    1.7629770562e-02    9.9078789062e+04
    1.7639854923e-02    9.9096406250e+04
    1.7649939284e-02    9.9114039062e+04
    1.7659764737e-02    9.9131210938e+04
    1.7669849098e-02    9.9148750000e+04
    1.7679933459e-02    9.9166210938e+04
    1.7689760774e-02    9.9183156250e+04
    1.7699845135e-02    9.9200476562e+04
    1.7709929496e-02    9.9217695312e+04
    1.7719754949e-02    9.9234414062e+04
    1.7729841173e-02    9.9251523438e+04
    1.7739925534e-02    9.9268539062e+04
    1.7749750987e-02    9.9285039062e+04
    1.7759837210e-02    9.9301835938e+04
    1.7769921571e-02    9.9318601562e+04
    1.7779748887e-02    9.9335070312e+04
    1.7789835110e-02    9.9352179688e+04
    1.7799919471e-02    9.9369414062e+04
    1.7809746787e-02    9.9386085938e+04
    1.7819833010e-02    9.9402726562e+04
    1.7829919234e-02    9.9418781250e+04
    1.7839744687e-02    9.9433898438e+04
    1.7849830911e-02    9.9449085938e+04
    1.7859917134e-02    9.9464195312e+04
    1.7869744450e-02    9.9479000000e+04
    1.7879830673e-02    9.9494242188e+04
    1.7889916897e-02    9.9509460938e+04
    1.7899744213e-02    9.9524187500e+04
    1.7909830436e-02    9.9539164062e+04
    1.7919918522e-02    9.9553976562e+04
    1.7929745838e-02    9.9568242188e+04
    1.7939832062e-02    9.9582664062e+04
    1.7949918285e-02    9.9596937500e+04
    1.7959747463e-02    9.9610789062e+04
    1.7969833687e-02    9.9625085938e+04
    1.7979919910e-02    9.9639476562e+04
    1.7989749089e-02    9.9653632812e+04
    1.7999835312e-02    9.9668226562e+04
    1.8009923398e-02    9.9682804688e+04
    1.8019750714e-02    9.9696882812e+04
    1.8029838800e-02    9.9711101562e+04
    1.8039925024e-02    9.9724968750e+04
    1.8049754202e-02    9.9737976562e+04
    1.8059842288e-02    9.9750750000e+04
    1.8069928512e-02    9.9762914062e+04
    1.8079757690e-02    9.9774312500e+04
    1.8089845777e-02    9.9785625000e+04
    1.8099933863e-02    9.9796664062e+04
    1.8109763041e-02    9.9807226562e+04
    1.8119849265e-02    9.9817914062e+04
    1.8129937351e-02    9.9828625000e+04
    1.8139766529e-02    9.9839289062e+04
    1.8149854615e-02    9.9850804688e+04
    1.8159942701e-02    9.9862898438e+04
    1.8169771880e-02    9.9874898438e+04
    1.8179859966e-02    9.9886960938e+04
    1.8189948052e-02    9.9898304688e+04
    1.8199777231e-02    9.9908523438e+04
    1.8209865317e-02    9.9918226562e+04
    1.8219953403e-02    9.9927460938e+04
    1.8229782581e-02    9.9936164062e+04
    1.8239870667e-02    9.9944929688e+04
    1.8249958754e-02    9.9953531250e+04
    1.8259789795e-02    9.9961687500e+04
    1.8269877881e-02    9.9969726562e+04
    1.8279965967e-02    9.9977351562e+04
    1.8289795145e-02    9.9984351562e+04
    1.8299885094e-02    9.9991179688e+04
    1.8309973180e-02    9.9997820312e+04
    1.8319802359e-02    1.0000433594e+05
    1.8329892308e-02    1.0001122656e+05
    1.8339980394e-02    1.0001827344e+05
    1.8349809572e-02    1.0002513281e+05
    1.8359899521e-02    1.0003191406e+05
    1.8369987607e-02    1.0003831250e+05
    1.8379818648e-02    1.0004410156e+05
    1.8389906734e-02    1.0004963281e+05
    1.8399994820e-02    1.0005468750e+05
    1.8409825861e-02    1.0005909375e+05
    1.8419913948e-02    1.0006300781e+05
    1.8429744989e-02    1.0006627344e+05
    1.8439833075e-02    1.0006919531e+05
    1.8449923024e-02    1.0007183594e+05
    1.8459752202e-02    1.0007421094e+05
    1.8469842151e-02    1.0007646094e+05
    1.8479930237e-02    1.0007858594e+05
    1.8489761278e-02    1.0008053906e+05
    1.8499849364e-02    1.0008235156e+05
    1.8509939313e-02    1.0008388281e+05
    1.8519770354e-02    1.0008503906e+05
    1.8529858440e-02    1.0008582031e+05
    1.8539948389e-02    1.0008614844e+05
    1.8549777567e-02    1.0008600781e+05
    1.8559867516e-02    1.0008535156e+05
    1.8569957465e-02    1.0008416406e+05
    1.8579786643e-02    1.0008253906e+05
    1.8589876592e-02    1.0008057031e+05
    1.8599964678e-02    1.0007835156e+05
    1.8609795719e-02    1.0007600781e+05
    1.8619885668e-02    1.0007335156e+05
    1.8629973754e-02    1.0007033594e+05
    1.8639804795e-02    1.0006691406e+05
    1.8649894744e-02    1.0006285156e+05
    1.8659982830e-02    1.0005821094e+05
    1.8669813871e-02    1.0005316406e+05
    1.8679903820e-02    1.0004752344e+05
    1.8689991906e-02    1.0004140625e+05
    1.8699822947e-02    1.0003502344e+05
    1.8709912896e-02    1.0002803906e+05
    1.8719742075e-02    1.0002085156e+05
    1.8729832023e-02    1.0001309375e+05
    1.8739921972e-02    1.0000500000e+05
    1.8749751151e-02    9.9996773438e+04
    1.8759841099e-02    9.9987867188e+04
    1.8769931048e-02    9.9978343750e+04
    1.8779760227e-02    9.9968445312e+04
    1.8789850175e-02    9.9957898438e+04
    1.8799940124e-02    9.9946945312e+04
    1.8809769303e-02    9.9935851562e+04
    1.8819859251e-02    9.9924031250e+04
    1.8829949200e-02    9.9911812500e+04
    1.8839778379e-02    9.9899398438e+04
    1.8849868327e-02    9.9886179688e+04
    1.8859958276e-02    9.9872492188e+04
    1.8869787455e-02    9.9858593750e+04
    1.8879877403e-02    9.9843718750e+04
    1.8889967352e-02    9.9828437500e+04
    1.8899796531e-02    9.9813226562e+04
    1.8909886479e-02    9.9797164062e+04
    1.8919974566e-02    9.9780648438e+04
    1.8929805607e-02    9.9764132812e+04
    1.8939895555e-02    9.9746742188e+04
    1.8949983642e-02    9.9728570312e+04
    1.8959814683e-02    9.9710351562e+04
    1.8969904631e-02    9.9691429688e+04
    1.8979992718e-02    9.9671898438e+04
    1.8989823759e-02    9.9652906250e+04
    1.8999913707e-02    9.9632804688e+04
    1.9009742886e-02    9.9612929688e+04
    1.9019832835e-02    9.9591914062e+04
    1.9029920921e-02    9.9570570312e+04
    1.9039751962e-02    9.9549210938e+04
    1.9049841911e-02    9.9526875000e+04
    1.9059929997e-02    9.9503601562e+04
    1.9069761038e-02    9.9480242188e+04
    1.9079849124e-02    9.9455382812e+04
    1.9089939073e-02    9.9430195312e+04
    1.9099770114e-02    9.9405523438e+04
    1.9109858200e-02    9.9380039062e+04
    1.9119948149e-02    9.9354523438e+04
    1.9129777327e-02    9.9329437500e+04
    1.9139867276e-02    9.9303554688e+04
    1.9149955362e-02    9.9277492188e+04
    1.9159786403e-02    9.9251687500e+04
    1.9169874489e-02    9.9224710938e+04
    1.9179964438e-02    9.9196960938e+04
    1.9189795479e-02    9.9168906250e+04
    1.9199883565e-02    9.9139312500e+04
    1.9209971651e-02    9.9109398438e+04
    1.9219802693e-02    9.9079601562e+04
    1.9229892641e-02    9.9047976562e+04
    1.9239980727e-02    9.9016023438e+04
    1.9249811769e-02    9.8984648438e+04
    1.9259899855e-02    9.8951625000e+04
    1.9269989803e-02    9.8918367188e+04
    1.9279818982e-02    9.8885367188e+04
    1.9289908931e-02    9.8851468750e+04
    1.9299998879e-02    9.8817210938e+04
    1.9309828058e-02    9.8783148438e+04
    1.9319918007e-02    9.8748468750e+04
    1.9329749048e-02    9.8714023438e+04
    1.9339837134e-02    9.8678281250e+04
    1.9349927083e-02    9.8642617188e+04
    1.9359758124e-02    9.8606648438e+04
    1.9369848073e-02    9.8570226562e+04
    1.9379938021e-02    9.8531851562e+04
    1.9389769062e-02    9.8495648438e+04
    1.9399860874e-02    9.8455851562e+04
    1.9409950823e-02    9.8417718750e+04
    1.9419781864e-02    9.8378304688e+04
    1.9429871812e-02    9.8338343750e+04
    1.9439963624e-02    9.8298335938e+04
[...]
    1.1513980478e-01    1.0122853906e+05
    1.1514969915e-01    1.0122853125e+05
    1.1515989155e-01    1.0122852344e+05
    1.1516978592e-01    1.0122852344e+05
    1.1517997831e-01    1.0122850781e+05
    1.1518987268e-01    1.0122850000e+05
    1.1519976705e-01    1.0122849219e+05
    1.1520995945e-01    1.0122847656e+05
    1.1521985382e-01    1.0122847656e+05
    1.1522974819e-01    1.0122846875e+05
    1.1523994058e-01    1.0122846094e+05
    1.1524983495e-01    1.0122846094e+05
    1.1525972933e-01    1.0122844531e+05
    1.1526992172e-01    1.0122844531e+05
    1.1527981609e-01    1.0122843750e+05
    1.1528971046e-01    1.0122842969e+05
    1.1529990286e-01    1.0122841406e+05
    1.1530979723e-01    1.0122840625e+05
    1.1531998962e-01    1.0122839844e+05
    1.1532988399e-01    1.0122839844e+05
    1.1533977091e-01    1.0122839844e+05
    1.1534996331e-01    1.0122838281e+05
    1.1535985768e-01    1.0122837500e+05
    1.1536975205e-01    1.0122836719e+05
    1.1537994444e-01    1.0122835156e+05
    1.1538983881e-01    1.0122835156e+05
    1.1539973319e-01    1.0122834375e+05
    1.1540992558e-01    1.0122833594e+05
    1.1541981995e-01    1.0122833594e+05
    1.1542971432e-01    1.0122832031e+05
    1.1543990672e-01    1.0122832031e+05
    1.1544980109e-01    1.0122831250e+05
    1.1545999348e-01    1.0122830469e+05
    1.1546988785e-01    1.0122828906e+05
    1.1547978222e-01    1.0122828906e+05
    1.1548997462e-01    1.0122828125e+05
    1.1549986899e-01    1.0122827344e+05
    1.1550976336e-01    1.0122827344e+05
    1.1551995575e-01    1.0122825781e+05
    1.1552985013e-01    1.0122825000e+05
    1.1553973705e-01    1.0122822656e+05
    1.1554993689e-01    1.0122822656e+05
    1.1555982381e-01    1.0122821875e+05
    1.1556971818e-01    1.0122821094e+05
    1.1557991058e-01    1.0122819531e+05
    1.1558980495e-01    1.0122817969e+05
    1.1559999734e-01    1.0122816406e+05
    1.1560989171e-01    1.0122815625e+05
    1.1561978608e-01    1.0122814844e+05
    1.1562997848e-01    1.0122813281e+05
    1.1563987285e-01    1.0122812500e+05
    1.1564976722e-01    1.0122811719e+05
    1.1565995961e-01    1.0122810156e+05
    1.1566985399e-01    1.0122810156e+05
    1.1567974836e-01    1.0122810156e+05
    1.1568994075e-01    1.0122809375e+05
    1.1569983512e-01    1.0122808594e+05
    1.1570972949e-01    1.0122808594e+05
    1.1571992189e-01    1.0122807031e+05
    1.1572981626e-01    1.0122806250e+05
    1.1573970318e-01    1.0122803906e+05
    1.1574990302e-01    1.0122803125e+05
    1.1575978994e-01    1.0122802344e+05
    1.1576998234e-01    1.0122802344e+05
    1.1577987671e-01    1.0122800781e+05
    1.1578977108e-01    1.0122800781e+05
    1.1579996347e-01    1.0122800781e+05
    1.1580985785e-01    1.0122802344e+05
    1.1581975222e-01    1.0122802344e+05
    1.1582994461e-01    1.0122802344e+05
    1.1583983898e-01    1.0122802344e+05
    1.1584973335e-01    1.0122802344e+05
    1.1585992575e-01    1.0122802344e+05
    1.1586982012e-01    1.0122800781e+05
    1.1587971449e-01    1.0122799219e+05
    1.1588990688e-01    1.0122797656e+05
    1.1589980125e-01    1.0122796875e+05
    1.1590999365e-01    1.0122796094e+05
    1.1591988802e-01    1.0122796094e+05
    1.1592978239e-01    1.0122794531e+05
    1.1593997478e-01    1.0122794531e+05
    1.1594986916e-01    1.0122793750e+05
    1.1595975608e-01    1.0122793750e+05
    1.1596995592e-01    1.0122792969e+05
    1.1597984284e-01    1.0122792969e+05
    1.1598973721e-01    1.0122792969e+05
    1.1599992961e-01    1.0122791406e+05
    1.1600982398e-01    1.0122791406e+05
    1.1601971835e-01    1.0122791406e+05
    1.1602991074e-01    1.0122790625e+05
    1.1603980511e-01    1.0122789844e+05
    1.1604999751e-01    1.0122789844e+05
    1.1605989188e-01    1.0122787500e+05
    1.1606978625e-01    1.0122785156e+05
    1.1607997864e-01    1.0122784375e+05
    1.1608987302e-01    1.0122783594e+05
    1.1609976739e-01    1.0122782031e+05
    1.1610995978e-01    1.0122780469e+05
    1.1611985415e-01    1.0122778906e+05
    1.1612974852e-01    1.0122778906e+05
    1.1613994092e-01    1.0122777344e+05
    1.1614983529e-01    1.0122777344e+05
    1.1615972221e-01    1.0122777344e+05
    1.1616992205e-01    1.0122775781e+05
    1.1617980897e-01    1.0122775781e+05
    1.1618970335e-01    1.0122775000e+05
    1.1619989574e-01    1.0122775000e+05
    1.1620979011e-01    1.0122775781e+05
    1.1621998250e-01    1.0122775781e+05
    1.1622987688e-01    1.0122775781e+05
    1.1623977125e-01    1.0122777344e+05
    1.1624996364e-01    1.0122777344e+05
    1.1625985801e-01    1.0122777344e+05
    1.1626975238e-01    1.0122775781e+05
    1.1627994478e-01    1.0122775000e+05
    1.1628983915e-01    1.0122774219e+05
    1.1629973352e-01    1.0122772656e+05
    1.1630992591e-01    1.0122771875e+05
    1.1631982028e-01    1.0122771094e+05
    1.1632971466e-01    1.0122769531e+05
    1.1633990705e-01    1.0122768750e+05
    1.1634980142e-01    1.0122768750e+05
    1.1635999382e-01    1.0122767969e+05
    1.1636988819e-01    1.0122766406e+05
    1.1637977511e-01    1.0122766406e+05
    1.1638997495e-01    1.0122765625e+05
    1.1639986187e-01    1.0122764844e+05
    1.1640975624e-01    1.0122763281e+05
    1.1641994864e-01    1.0122761719e+05
    1.1642984301e-01    1.0122760156e+05
    1.1643973738e-01    1.0122758594e+05
    1.1644992977e-01    1.0122757031e+05
    1.1645982414e-01    1.0122755469e+05
    1.1646971852e-01    1.0122753906e+05
    1.1647991091e-01    1.0122753906e+05
    1.1648980528e-01    1.0122753906e+05
    1.1649999768e-01    1.0122753906e+05
    1.1650989205e-01    1.0122753125e+05
    1.1651978642e-01    1.0122753125e+05
    1.1652997881e-01    1.0122752344e+05
    1.1653987318e-01    1.0122752344e+05
    1.1654976755e-01    1.0122750781e+05
    1.1655995995e-01    1.0122750000e+05
    1.1656985432e-01    1.0122747656e+05
    1.1657974124e-01    1.0122747656e+05
    1.1658994108e-01    1.0122747656e+05
    1.1659982800e-01    1.0122747656e+05
    1.1660972238e-01    1.0122747656e+05
    1.1661991477e-01    1.0122746875e+05
    1.1662980914e-01    1.0122746875e+05
    1.1663970351e-01    1.0122746875e+05
    1.1664989591e-01    1.0122746094e+05
    1.1665979028e-01    1.0122746094e+05
    1.1666998267e-01    1.0122743750e+05
    1.1667987704e-01    1.0122741406e+05
    1.1668977141e-01    1.0122740625e+05
    1.1669996381e-01    1.0122739844e+05
    1.1670985818e-01    1.0122737500e+05
    1.1671975255e-01    1.0122736719e+05
    1.1672994494e-01    1.0122736719e+05
    1.1673983932e-01    1.0122736719e+05
    1.1674973369e-01    1.0122737500e+05
    1.1675992608e-01    1.0122738281e+05
    1.1676982045e-01    1.0122738281e+05
    1.1677971482e-01    1.0122739844e+05
    1.1678990722e-01    1.0122738281e+05
    1.1679979414e-01    1.0122738281e+05
    1.1680999398e-01    1.0122736719e+05
    1.1681988090e-01    1.0122735156e+05
    1.1682977527e-01    1.0122734375e+05
    1.1683996767e-01    1.0122733594e+05
    1.1684986204e-01    1.0122732031e+05
    1.1685975641e-01    1.0122732031e+05
    1.1686994880e-01    1.0122731250e+05
    1.1687984318e-01    1.0122731250e+05
    1.1688973755e-01    1.0122730469e+05
    1.1689992994e-01    1.0122730469e+05
    1.1690982431e-01    1.0122728906e+05
    1.1691971868e-01    1.0122728125e+05
    1.1692991108e-01    1.0122725781e+05
    1.1693980545e-01    1.0122724219e+05
    1.1694999784e-01    1.0122722656e+05
    1.1695989221e-01    1.0122721094e+05
    1.1696978658e-01    1.0122721094e+05
    1.1697997898e-01    1.0122719531e+05
    1.1698987335e-01    1.0122718750e+05
    1.1699976772e-01    1.0122717969e+05
    1.1700996011e-01    1.0122717969e+05
    1.1701985449e-01    1.0122717969e+05
    1.1702974141e-01    1.0122717969e+05
    1.1703993380e-01    1.0122717969e+05
    1.1704982817e-01    1.0122717969e+05
    1.1705972254e-01    1.0122717969e+05
    1.1706991494e-01    1.0122717969e+05
    1.1707980931e-01    1.0122717969e+05
    1.1708970368e-01    1.0122716406e+05
    1.1709989607e-01    1.0122716406e+05
    1.1710979044e-01    1.0122714844e+05
    1.1711998284e-01    1.0122713281e+05
    1.1712987721e-01    1.0122711719e+05
    1.1713977158e-01    1.0122710156e+05
    1.1714996397e-01    1.0122709375e+05
    1.1715985835e-01    1.0122708594e+05
    1.1716975272e-01    1.0122707031e+05
    1.1717994511e-01    1.0122706250e+05
    1.1718983948e-01    1.0122706250e+05
    1.1719973385e-01    1.0122706250e+05
    1.1720992625e-01    1.0122706250e+05
    1.1721982062e-01    1.0122706250e+05
    1.1722970754e-01    1.0122706250e+05
    1.1723990738e-01    1.0122705469e+05
    1.1724979430e-01    1.0122705469e+05
    1.1725998670e-01    1.0122703906e+05
    1.1726988107e-01    1.0122703906e+05
    1.1727977544e-01    1.0122703125e+05
    1.1728996783e-01    1.0122702344e+05
    1.1729986221e-01    1.0122700781e+05
    1.1730975658e-01    1.0122700000e+05
    1.1731994897e-01    1.0122700000e+05
    1.1732984334e-01    1.0122699219e+05
    1.1733973771e-01    1.0122697656e+05
    1.1734993011e-01    1.0122697656e+05
    1.1735982448e-01    1.0122696875e+05
    1.1736971885e-01    1.0122696094e+05
    1.1737991124e-01    1.0122696094e+05
    1.1738980561e-01    1.0122694531e+05
    1.1739999801e-01    1.0122693750e+05
    1.1740989238e-01    1.0122692969e+05
    1.1741978675e-01    1.0122691406e+05
    1.1742997915e-01    1.0122690625e+05
    1.1743987352e-01    1.0122689844e+05
    1.1744976044e-01    1.0122689844e+05
    1.1745996028e-01    1.0122688281e+05
    1.1746984720e-01    1.0122687500e+05
    1.1747974157e-01    1.0122686719e+05
    1.1748993397e-01    1.0122686719e+05
    1.1749982834e-01    1.0122685156e+05
    1.1750972271e-01    1.0122685156e+05
    1.1751991510e-01    1.0122685156e+05
    1.1752980947e-01    1.0122684375e+05
    1.1753970385e-01    1.0122683594e+05
    1.1754989624e-01    1.0122683594e+05
    1.1755979061e-01    1.0122683594e+05
    1.1756998301e-01    1.0122682031e+05
    1.1757987738e-01    1.0122681250e+05
    1.1758977175e-01    1.0122678906e+05
    1.1759996414e-01    1.0122678906e+05
    1.1760985851e-01    1.0122678125e+05
    1.1761975288e-01    1.0122678125e+05
    1.1762994528e-01    1.0122677344e+05
    1.1763983965e-01    1.0122677344e+05
    1.1764972657e-01    1.0122677344e+05
    1.1765992641e-01    1.0122677344e+05
    1.1766981333e-01    1.0122675781e+05
    1.1767970771e-01    1.0122675781e+05
    1.1768990010e-01    1.0122675000e+05
    1.1769979447e-01    1.0122674219e+05
    1.1770998687e-01    1.0122672656e+05
    1.1771988124e-01    1.0122672656e+05
    1.1772977561e-01    1.0122671094e+05
    1.1773996800e-01    1.0122671094e+05
    1.1774986237e-01    1.0122671094e+05
    1.1775975674e-01    1.0122669531e+05
    1.1776994914e-01    1.0122668750e+05
    1.1777984351e-01    1.0122668750e+05
    1.1778973788e-01    1.0122667969e+05
    1.1779993027e-01    1.0122666406e+05
    1.1780982465e-01    1.0122666406e+05
    1.1781971902e-01    1.0122665625e+05
    1.1782991141e-01    1.0122664844e+05
    1.1783980578e-01    1.0122664844e+05
    1.1784999818e-01    1.0122662500e+05
    1.1785989255e-01    1.0122661719e+05
    1.1786977947e-01    1.0122660156e+05
    1.1787997931e-01    1.0122660156e+05
    1.1788986623e-01    1.0122659375e+05
    1.1789976060e-01    1.0122659375e+05
    1.1790995300e-01    1.0122658594e+05
    1.1791984737e-01    1.0122658594e+05
    1.1792974174e-01    1.0122658594e+05
    1.1793993413e-01    1.0122657031e+05
    1.1794982851e-01    1.0122657031e+05
    1.1795972288e-01    1.0122656250e+05
    1.1796991527e-01    1.0122655469e+05
    1.1797980964e-01    1.0122653906e+05
    1.1798970401e-01    1.0122653906e+05
    1.1799989641e-01    1.0122653125e+05
    1.1800979078e-01    1.0122653125e+05
    1.1801998317e-01    1.0122652344e+05
    1.1802987754e-01    1.0122652344e+05
    1.1803977191e-01    1.0122650781e+05
    1.1804996431e-01    1.0122650000e+05
    1.1805985868e-01    1.0122649219e+05
    1.1806975305e-01    1.0122647656e+05
    1.1807994545e-01    1.0122647656e+05
    1.1808983237e-01    1.0122646875e+05
    1.1809972674e-01    1.0122646094e+05
    1.1810991913e-01    1.0122646094e+05
    1.1811981350e-01    1.0122644531e+05
    1.1812970787e-01    1.0122643750e+05
    1.1813990027e-01    1.0122642969e+05
    1.1814979464e-01    1.0122641406e+05
    1.1815998703e-01    1.0122641406e+05
    1.1816988140e-01    1.0122641406e+05
    1.1817977577e-01    1.0122640625e+05
    1.1818996817e-01    1.0122639844e+05
    1.1819986254e-01    1.0122639844e+05
    1.1820975691e-01    1.0122639844e+05
    1.1821994931e-01    1.0122638281e+05
    1.1822984368e-01    1.0122637500e+05
    1.1823973805e-01    1.0122636719e+05
    1.1824993044e-01    1.0122635156e+05
    1.1825982481e-01    1.0122635156e+05
    1.1826971918e-01    1.0122635156e+05
    1.1827991158e-01    1.0122634375e+05
    1.1828980595e-01    1.0122633594e+05
    1.1829999834e-01    1.0122633594e+05
    1.1830989271e-01    1.0122632031e+05
    1.1831977963e-01    1.0122631250e+05
    1.1832997948e-01    1.0122630469e+05
    1.1833986640e-01    1.0122628906e+05
    1.1834976077e-01    1.0122628906e+05
    1.1835995317e-01    1.0122628125e+05
    1.1836984754e-01    1.0122627344e+05
    1.1837974191e-01    1.0122627344e+05
    1.1838993430e-01    1.0122625781e+05
    1.1839982867e-01    1.0122625000e+05
    1.1840972304e-01    1.0122624219e+05
    1.1841991544e-01    1.0122624219e+05
    1.1842980981e-01    1.0122622656e+05
    1.1843970418e-01    1.0122622656e+05
    1.1844989657e-01    1.0122622656e+05
    1.1845979095e-01    1.0122621875e+05
    1.1846998334e-01    1.0122621094e+05
    1.1847987771e-01    1.0122621094e+05
    1.1848977208e-01    1.0122619531e+05
    1.1849996448e-01    1.0122618750e+05
    1.1850985885e-01    1.0122617969e+05
    1.1851974577e-01    1.0122616406e+05
    1.1852994561e-01    1.0122616406e+05
    1.1853983253e-01    1.0122615625e+05
    1.1854972690e-01    1.0122614844e+05
    1.1855991930e-01    1.0122614844e+05
    1.1856981367e-01    1.0122613281e+05
    1.1857970804e-01    1.0122612500e+05
    1.1858990043e-01    1.0122612500e+05
    1.1859979481e-01    1.0122611719e+05
    1.1860998720e-01    1.0122610156e+05
    1.1861988157e-01    1.0122610156e+05
    1.1862977594e-01    1.0122610156e+05
    1.1863996834e-01    1.0122609375e+05
    1.1864986271e-01    1.0122608594e+05
    1.1865975708e-01    1.0122608594e+05
    1.1866994947e-01    1.0122607031e+05
    1.1867984384e-01    1.0122606250e+05
    1.1868973821e-01    1.0122606250e+05
    1.1869993061e-01    1.0122605469e+05
    1.1870982498e-01    1.0122603906e+05
    1.1871971935e-01    1.0122603906e+05
    1.1872991174e-01    1.0122603125e+05
    1.1873980612e-01    1.0122602344e+05
    1.1874999851e-01    1.0122602344e+05
    1.1875989288e-01    1.0122602344e+05
    1.1876977980e-01    1.0122600781e+05
    1.1877997965e-01    1.0122600000e+05
    1.1878986657e-01    1.0122599219e+05
    1.1879976094e-01    1.0122599219e+05
    1.1880995333e-01    1.0122597656e+05
    1.1881984770e-01    1.0122597656e+05
    1.1882974207e-01    1.0122597656e+05
    1.1883993447e-01    1.0122596875e+05
    1.1884982884e-01    1.0122596094e+05
    1.1885972321e-01    1.0122596094e+05
    1.1886991560e-01    1.0122596094e+05
    1.1887980998e-01    1.0122594531e+05
    1.1888970435e-01    1.0122593750e+05
    1.1889989674e-01    1.0122592969e+05
    1.1890979111e-01    1.0122592969e+05
    1.1891998351e-01    1.0122591406e+05
    1.1892987788e-01    1.0122591406e+05
    1.1893977225e-01    1.0122590625e+05
    1.1894996464e-01    1.0122589844e+05
    1.1895985901e-01    1.0122589844e+05
    1.1896975338e-01    1.0122589844e+05
    1.1897994578e-01    1.0122588281e+05
    1.1898984015e-01    1.0122587500e+05
    1.1899972707e-01    1.0122586719e+05
    1.1900992692e-01    1.0122586719e+05
    1.1901981384e-01    1.0122585156e+05
    1.1902970821e-01    1.0122585156e+05
    1.1903990060e-01    1.0122584375e+05
    1.1904979497e-01    1.0122584375e+05
    1.1905998737e-01    1.0122583594e+05
    1.1906988174e-01    1.0122583594e+05
    1.1907977611e-01    1.0122582031e+05
    1.1908996850e-01    1.0122581250e+05
    1.1909986287e-01    1.0122581250e+05
    1.1910975724e-01    1.0122580469e+05
    1.1911994964e-01    1.0122578906e+05
    1.1912984401e-01    1.0122578906e+05
    1.1913973838e-01    1.0122578906e+05
    1.1914993078e-01    1.0122578125e+05
    1.1915982515e-01    1.0122577344e+05
    1.1916971952e-01    1.0122577344e+05
    1.1917991191e-01    1.0122577344e+05
    1.1918980628e-01    1.0122575781e+05
    1.1919999868e-01    1.0122575000e+05
    1.1920989305e-01    1.0122575000e+05
    1.1921978742e-01    1.0122574219e+05
    1.1922997981e-01    1.0122572656e+05
    1.1923987418e-01    1.0122572656e+05
    1.1924976110e-01    1.0122572656e+05
    1.1925996095e-01    1.0122571875e+05
    1.1926984787e-01    1.0122571094e+05
    1.1927974224e-01    1.0122571094e+05
    1.1928993464e-01    1.0122569531e+05
    1.1929982901e-01    1.0122569531e+05
    1.1930972338e-01    1.0122568750e+05
    1.1931991577e-01    1.0122567969e+05
    1.1932981014e-01    1.0122566406e+05
    1.1933970451e-01    1.0122565625e+05
    1.1934989691e-01    1.0122564844e+05
    1.1935979128e-01    1.0122564844e+05
    1.1936998367e-01    1.0122562500e+05
    1.1937987804e-01    1.0122561719e+05
    1.1938977242e-01    1.0122560156e+05
    1.1939996481e-01    1.0122558594e+05
    1.1940985918e-01    1.0122558594e+05
    1.1941975355e-01    1.0122556250e+05
    1.1942994595e-01    1.0122555469e+05
    1.1943984032e-01    1.0122553906e+05
    1.1944973469e-01    1.0122553906e+05
    1.1945992708e-01    1.0122553125e+05
    1.1946982145e-01    1.0122553125e+05
    1.1947970837e-01    1.0122553125e+05
    1.1948990822e-01    1.0122553125e+05
    1.1949979514e-01    1.0122553125e+05
    1.1950999498e-01    1.0122553125e+05
    1.1951988190e-01    1.0122553125e+05
    1.1952977628e-01    1.0122552344e+05
    1.1953996867e-01    1.0122552344e+05
    1.1954986304e-01    1.0122552344e+05
    1.1955975741e-01    1.0122550781e+05
    1.1956994981e-01    1.0122549219e+05
    1.1957984418e-01    1.0122547656e+05
    1.1958973855e-01    1.0122547656e+05
    1.1959993094e-01    1.0122547656e+05
    1.1960982531e-01    1.0122546875e+05
    1.1961971968e-01    1.0122546875e+05
    1.1962991208e-01    1.0122546875e+05
    1.1963980645e-01    1.0122546875e+05
    1.1964999884e-01    1.0122546875e+05
    1.1965989321e-01    1.0122547656e+05
    1.1966978759e-01    1.0122547656e+05
    1.1967997998e-01    1.0122546875e+05
    1.1968987435e-01    1.0122546875e+05
    1.1969976872e-01    1.0122546094e+05
    1.1970996112e-01    1.0122544531e+05
    1.1971985549e-01    1.0122542969e+05
    1.1972974241e-01    1.0122541406e+05
    1.1973994225e-01    1.0122539844e+05
    1.1974982917e-01    1.0122538281e+05
    1.1975972354e-01    1.0122536719e+05
    1.1976991594e-01    1.0122536719e+05
    1.1977981031e-01    1.0122537500e+05
    1.1978970468e-01    1.0122538281e+05
    1.1979989707e-01    1.0122538281e+05
    1.1980979145e-01    1.0122539844e+05
    1.1981998384e-01    1.0122539844e+05
    1.1982987821e-01    1.0122538281e+05
    1.1983977258e-01    1.0122537500e+05
    1.1984996498e-01    1.0122535156e+05
    1.1985985935e-01    1.0122534375e+05
    1.1986975372e-01    1.0122533594e+05
    1.1987994611e-01    1.0122531250e+05
    1.1988984048e-01    1.0122528906e+05
    1.1989973485e-01    1.0122528125e+05
    1.1990992725e-01    1.0122527344e+05
    1.1991982162e-01    1.0122527344e+05
    1.1992971599e-01    1.0122527344e+05
    1.1993990839e-01    1.0122527344e+05
    1.1994980276e-01    1.0122527344e+05
    1.1995999515e-01    1.0122525781e+05
    1.1996988952e-01    1.0122525000e+05
    1.1997977644e-01    1.0122524219e+05
    1.1998997629e-01    1.0122522656e+05
    1.1999986321e-01    1.0122522656e+05
endcurve
