Curveplot
LS-DYNA keyword deck by LS-PrePost                          
Time
Pressure
Defined Connection
Pressure @ 13 #pts=12001
* Minval=     8.0710242188e+04 at time=         0.0190198328
* Maxval=     2.2547868750e+05 at time=         0.0080199214
    0.0000000000e+00    1.0120000000e+05
    9.9485332612e-06    1.0120000000e+05
    1.9897423044e-05    1.0120000000e+05
    2.9951565011e-05    1.0120000000e+05
    3.9980728616e-05    1.0120000000e+05
    4.9974012654e-05    1.0120000000e+05
    5.9942107328e-05    1.0120000000e+05
    6.9999761763e-05    1.0120000000e+05
    7.9961559095e-05    1.0120000000e+05
    8.9972141723e-05    1.0120000000e+05
    9.9981560197e-05    1.0120000000e+05
    1.0998940706e-04    1.0120000000e+05
    1.1998419359e-04    1.0120000000e+05
    1.2995323050e-04    1.0120000000e+05
    1.3996017515e-04    1.0120000000e+05
    1.4999906125e-04    1.0120000000e+05
    1.5998946037e-04    1.0120000000e+05
    1.6999771469e-04    1.0120000000e+05
    1.7994047084e-04    1.0120000000e+05
    1.8996509607e-04    1.0120000000e+05
    1.9998881908e-04    1.0120000000e+05
    2.0992395002e-04    1.0120000000e+05
    2.1992504480e-04    1.0120000000e+05
    2.2998896020e-04    1.0120000000e+05
    2.3994274670e-04    1.0120000000e+05
    2.4994841078e-04    1.0120000000e+05
    2.5991513394e-04    1.0120000000e+05
    2.6992458152e-04    1.0120000000e+05
    2.7997355210e-04    1.0120000000e+05
    2.8996740002e-04    1.0120000000e+05
    2.9999073013e-04    1.0120000000e+05
    3.0994569534e-04    1.0120000000e+05
    3.1992045115e-04    1.0120000000e+05
    3.2990923501e-04    1.0120000000e+05
    3.3999598236e-04    1.0120000000e+05
    3.4997868352e-04    1.0120000000e+05
    3.5995614599e-04    1.0120000000e+05
    3.6992397509e-04    1.0120000000e+05
    3.7997920299e-04    1.0120000000e+05
    3.8992188638e-04    1.0120000000e+05
    3.9995176485e-04    1.0120000000e+05
    4.0996674215e-04    1.0120000000e+05
    4.1996513028e-04    1.0120000000e+05
    4.2994352407e-04    1.0120000000e+05
    4.3990372797e-04    1.0120000000e+05
    4.4994760538e-04    1.0120000000e+05
    4.5997006237e-04    1.0120000000e+05
    4.6996766469e-04    1.0120000000e+05
    4.7994256602e-04    1.0120000000e+05
    4.8999983119e-04    1.0120000000e+05
    4.9992161803e-04    1.0120000000e+05
    5.0992099568e-04    1.0120000000e+05
    5.1989406347e-04    1.0120000000e+05
    5.2994879661e-04    1.0120000000e+05
    5.3997262148e-04    1.0120000000e+05
    5.4996390827e-04    1.0120000000e+05
    5.5991881527e-04    1.0120000000e+05
    5.6995544583e-04    1.0120000000e+05
    5.7995592942e-04    1.0120000000e+05
    5.8991851984e-04    1.0120000000e+05
    5.9996009804e-04    1.0120000000e+05
    6.0996110551e-04    1.0120000000e+05
    6.1992055271e-04    1.0120000000e+05
    6.2995956978e-04    1.0120000000e+05
    6.3995551318e-04    1.0120000000e+05
    6.4990657847e-04    1.0120000000e+05
    6.5993523458e-04    1.0120000000e+05
    6.6991476342e-04    1.0120000000e+05
    6.7997438600e-04    1.0120000000e+05
    6.8998552160e-04    1.0120000000e+05
    6.9994624937e-04    1.0120000000e+05
    7.0998381125e-04    1.0120000000e+05
    7.1996916085e-04    1.0120000000e+05
    7.2989746695e-04    1.0120000000e+05
    7.3990441160e-04    1.0120000000e+05
    7.4998824857e-04    1.0120000000e+05
    7.5988157187e-04    1.0120000000e+05
    7.6998496661e-04    1.0120000000e+05
    7.7989377314e-04    1.0120000000e+05
    7.8987726010e-04    1.0120000000e+05
    7.9993344843e-04    1.0120000000e+05
    8.0992997391e-04    1.0120000000e+05
    8.1986159785e-04    1.0120000000e+05
    8.2986772759e-04    1.0120000000e+05
    8.3994906163e-04    1.0120000000e+05
    8.4996316582e-04    1.0120000000e+05
    8.5990765365e-04    1.0120000000e+05
    8.6992606521e-04    1.0120000000e+05
    8.7986927247e-04    1.0120000000e+05
    8.8988884818e-04    1.0120000000e+05
    8.9998322073e-04    1.0120000000e+05
    9.0985273710e-04    1.0120000000e+05
    9.1994530521e-04    1.0120000000e+05
    9.2996051535e-04    1.0120000000e+05
    9.3989592278e-04    1.0120000000e+05
    9.4990356592e-04    1.0120000000e+05
    9.5998420147e-04    1.0120000000e+05
    9.6997723449e-04    1.0120000000e+05
    9.7988592461e-04    1.0120000000e+05
    9.8986946978e-04    1.0120000000e+05
    9.9992484320e-04    1.0120000000e+05
    1.0098917410e-03    1.0120000000e+05
    1.0199297685e-03    1.0120000000e+05
    1.0298761772e-03    1.0120000000e+05
    1.0398931336e-03    1.0120000000e+05
    1.0499813361e-03    1.0120000000e+05
    1.0599745438e-03    1.0120000000e+05
    1.0698699625e-03    1.0120000000e+05
    1.0798316216e-03    1.0120000000e+05
    1.0898627806e-03    1.0120000000e+05
    1.0999671649e-03    1.0120000000e+05
    1.1099696858e-03    1.0120000000e+05
    1.1198674329e-03    1.0120000000e+05
    1.1298329337e-03    1.0120000000e+05
    1.1398668867e-03    1.0120000000e+05
    1.1499702232e-03    1.0120000000e+05
    1.1599642457e-03    1.0120000000e+05
    1.1698462768e-03    1.0120000000e+05
    1.1799762724e-03    1.0120000000e+05
    1.1899931123e-03    1.0120000000e+05
    1.1998941191e-03    1.0120000000e+05
    1.2098611332e-03    1.0120000000e+05
    1.2198952027e-03    1.0120000000e+05
    1.2299969094e-03    1.0120000000e+05
    1.2399780098e-03    1.0120000000e+05
    1.2498318683e-03    1.0120000000e+05
    1.2599404436e-03    1.0120000000e+05
    1.2699295767e-03    1.0120000000e+05
    1.2799848337e-03    1.0120000000e+05
    1.2899119174e-03    1.0120000000e+05
    1.2999040773e-03    1.0120000000e+05
    1.3099620119e-03    1.0120000000e+05
    1.3198874658e-03    1.0120000000e+05
    1.3298776466e-03    1.0120000000e+05
    1.3399330201e-03    1.0120000000e+05
    1.3498517219e-03    1.0120000000e+05
    1.3598346850e-03    1.0120000000e+05
    1.3698824914e-03    1.0120000000e+05
    1.3799961889e-03    1.0120000000e+05
    1.3899679761e-03    1.0120000000e+05
    1.3997947099e-03    1.0120000000e+05
    1.4098947868e-03    1.0120000000e+05
    1.4198487625e-03    1.0120000000e+05
    1.4298666501e-03    1.0120000000e+05
    1.4399496140e-03    1.0120000000e+05
    1.4498812379e-03    1.0120000000e+05
    1.4598765410e-03    1.0120000000e+05
    1.4699363383e-03    1.0120000000e+05
    1.4798404882e-03    1.0120000000e+05
    1.4898075024e-03    1.0120000000e+05
    1.4998384286e-03    1.0120000000e+05
    1.5099340817e-03    1.0120000000e+05
    1.5198688488e-03    1.0120000000e+05
    1.5298661310e-03    1.0120000000e+05
    1.5399281401e-03    1.0120000000e+05
    1.5498235589e-03    1.0120000000e+05
    1.5597826568e-03    1.0120000000e+05
    1.5698038042e-03    1.0120000000e+05
    1.5798894456e-03    1.0120000000e+05
    1.5898041893e-03    1.0120000000e+05
    1.5997822629e-03    1.0120000000e+05
    1.6098242486e-03    1.0120000000e+05
    1.6199303791e-03    1.0120000000e+05
    1.6298582777e-03    1.0120000000e+05
    1.6398482258e-03    1.0120000000e+05
    1.6499016201e-03    1.0120000000e+05
    1.6597736394e-03    1.0120000000e+05
    1.6699557891e-03    1.0120000000e+05
    1.6799541190e-03    1.0120000000e+05
    1.6897631576e-03    1.0120000000e+05
    1.6998886131e-03    1.0120000000e+05
    1.7098234966e-03    1.0120000000e+05
    1.7198212445e-03    1.0120000000e+05
    1.7298831372e-03    1.0120000000e+05
    1.7397493357e-03    1.0120000000e+05
    1.7499401001e-03    1.0120000000e+05
    1.7599335406e-03    1.0120000000e+05
    1.7699910095e-03    1.0120000000e+05
    1.7798459157e-03    1.0120000000e+05
    1.7897628713e-03    1.0120000000e+05
    1.7997432733e-03    1.0120000000e+05
    1.8097875873e-03    1.0120000000e+05
    1.8198966281e-03    1.0120000000e+05
    1.8297954230e-03    1.0120000000e+05
    1.8397575477e-03    1.0120000000e+05
    1.8497833516e-03    1.0120000000e+05
    1.8598738825e-03    1.0120000000e+05
    1.8697472988e-03    1.0120000000e+05
    1.8799684476e-03    1.0120000000e+05
    1.8899705028e-03    1.0120000000e+05
    1.8997486914e-03    1.0120000000e+05
    1.9098792691e-03    1.0120000000e+05
    1.9197842339e-03    1.0120000000e+05
    1.9297528779e-03    1.0120000000e+05
    1.9397860160e-03    1.0120000000e+05
    1.9498848123e-03    1.0120000000e+05
    1.9597501960e-03    1.0120000000e+05
    1.9699807744e-03    1.0120000000e+05
    1.9799750298e-03    1.0120000000e+05
    1.9897213206e-03    1.0120000000e+05
    1.9998461939e-03    1.0120000000e+05
    2.0097286906e-03    1.0120000000e+05
    2.0199874416e-03    1.0120000000e+05
    2.0296876319e-03    1.0120000000e+05
    2.0397657063e-03    1.0120000000e+05
    2.0499110688e-03    1.0120000000e+05
    2.0598042756e-03    1.0120000000e+05
    2.0697626751e-03    1.0120000000e+05
    2.0797869656e-03    1.0120000000e+05
    2.0898783114e-03    1.0120000000e+05
    2.0997084212e-03    1.0120000000e+05
    2.1099345759e-03    1.0120000000e+05
    2.1198973991e-03    1.0120000000e+05
    2.1299272776e-03    1.0120000000e+05
    2.1396866068e-03    1.0120000000e+05
    2.1498505957e-03    1.0120000000e+05
    2.1597421728e-03    1.0120000000e+05
    2.1696998738e-03    1.0120000000e+05
    2.1797250956e-03    1.0120000000e+05
    2.1898152772e-03    1.0120000000e+05
    2.1999753080e-03    1.0120000000e+05
    2.2098552436e-03    1.0120000000e+05
    2.2198020015e-03    1.0120000000e+05
    2.2298169788e-03    1.0120000000e+05
    2.2399011068e-03    1.0120000000e+05
    2.2496914025e-03    1.0120000000e+05
    2.2599149961e-03    1.0120000000e+05
    2.2698421963e-03    1.0120000000e+05
    2.2798378486e-03    1.0120000000e+05
    2.2899038158e-03    1.0120000000e+05
    2.2996640764e-03    1.0120000000e+05
    2.3098704405e-03    1.0120000000e+05
    2.3197687697e-03    1.0120000000e+05
    2.3297325242e-03    1.0120000000e+05
    2.3397635669e-03    1.0120000000e+05
    2.3498735391e-03    1.0120000000e+05
    2.3596631363e-03    1.0120000000e+05
    2.3699179292e-03    1.0120000000e+05
    2.3798493203e-03    1.0120000000e+05
    2.3898521904e-03    1.0120000000e+05
    2.3999272380e-03    1.0120000000e+05
    2.4096691050e-03    1.0120000000e+05
    2.4198903702e-03    1.0120000000e+05
    2.4297749624e-03    1.0120000000e+05
    2.4397312663e-03    1.0120000000e+05
    2.4497611448e-03    1.0120000000e+05
    2.4598606396e-03    1.0120000000e+05
    2.4696153123e-03    1.0120000000e+05
    2.4798696395e-03    1.0120000000e+05
    2.4897709955e-03    1.0120000000e+05
    2.4997317232e-03    1.0120000000e+05
    2.5097390171e-03    1.0120000000e+05
    2.5197865907e-03    1.0120000000e+05
    2.5298676919e-03    1.0120000000e+05
    2.5399830192e-03    1.0120000000e+05
    2.5496787857e-03    1.0120000000e+05
    2.5598504581e-03    1.0120000000e+05
    2.5695865043e-03    1.0120000000e+05
    2.5797595736e-03    1.0120000000e+05
    2.5899761822e-03    1.0120000000e+05
    2.5997296907e-03    1.0120000000e+05
    2.6099444367e-03    1.0120000000e+05
    2.6197051629e-03    1.0120000000e+05
    2.6299178135e-03    1.0120000000e+05
    2.6396559551e-03    1.0120000000e+05
    2.6498497464e-03    1.0120000000e+05
    2.6596181560e-03    1.0120000000e+05
    2.6698117144e-03    1.0120000000e+05
    2.6799975894e-03    1.0120000000e+05
    2.6897578500e-03    1.0120000000e+05
    2.6999257971e-03    1.0120000000e+05
    2.7096671984e-03    1.0120000000e+05
    2.7198314201e-03    1.0120000000e+05
    2.7299984358e-03    1.0120000000e+05
    2.7397535741e-03    1.0120000000e+05
    2.7499182615e-03    1.0120000000e+05
    2.7596766595e-03    1.0120000000e+05
    2.7698124759e-03    1.0120000000e+05
    2.7799031232e-03    1.0120000000e+05
    2.7899974957e-03    1.0120000000e+05
    2.7996941935e-03    1.0120000000e+05
    2.8098789044e-03    1.0120000000e+05
    2.8196331114e-03    1.0120000000e+05
    2.8298718389e-03    1.0120000000e+05
    2.8396446723e-03    1.0120000000e+05
    2.8498955071e-03    1.0120000000e+05
    2.8597170021e-03    1.0120000000e+05
    2.8699862305e-03    1.0120000000e+05
    2.8798365965e-03    1.0120000000e+05
    2.8897151351e-03    1.0120000000e+05
    2.8996041510e-03    1.0120000000e+05
    2.9099211097e-03    1.0120000000e+05
    2.9198266566e-03    1.0120000000e+05
    2.9297438450e-03    1.0120000000e+05
    2.9396624304e-03    1.0120000000e+05
    2.9495784547e-03    1.0120000000e+05
    2.9599631671e-03    1.0120000000e+05
    2.9698726721e-03    1.0120000000e+05
    2.9797591269e-03    1.0120000000e+05
    2.9896521010e-03    1.0120000000e+05
    2.9999744147e-03    1.0120000000e+05
    3.0098163988e-03    1.0120000000e+05
    3.0196376611e-03    1.0120000000e+05
    3.0298705678e-03    1.0120000000e+05
    3.0396301299e-03    1.0120000000e+05
    3.0497885309e-03    1.0120000000e+05
    3.0598929152e-03    1.0120000000e+05
    3.0699353665e-03    1.0120000000e+05
    3.0799161177e-03    1.0120000000e+05
    3.0898337718e-03    1.0120000000e+05
    3.0996934511e-03    1.0120000000e+05
    3.1099189073e-03    1.0120000000e+05
    3.1196582131e-03    1.0120000000e+05
    3.1297593378e-03    1.0120000000e+05
    3.1397980638e-03    1.0120000000e+05
    3.1497753225e-03    1.0120000000e+05
    3.1596897170e-03    1.0120000000e+05
    3.1699552201e-03    1.0120000000e+05
    3.1797497068e-03    1.0120000000e+05
    3.1898894813e-03    1.0120000000e+05
    3.1999663915e-03    1.0120000000e+05
    3.2099809032e-03    1.0120000000e+05
    3.2199337147e-03    1.0120000000e+05
    3.2298252918e-03    1.0120000000e+05
    3.2396542374e-03    1.0120000000e+05
    3.2498151995e-03    1.0120000000e+05
    3.2599123660e-03    1.0120000000e+05
    3.2699457370e-03    1.0120000000e+05
    3.2799167093e-03    1.0120000000e+05
    3.2898250502e-03    1.0120000000e+05
    3.2996693626e-03    1.0120000000e+05
    3.3098286949e-03    1.0120000000e+05
    3.3199242316e-03    1.0120000000e+05
    3.3299552742e-03    1.0120000000e+05
    3.3399222884e-03    1.0120000000e+05
    3.3498257399e-03    1.0120000000e+05
    3.3596663270e-03    1.0120000000e+05
    3.3698028419e-03    1.0120000000e+05
    3.3798739314e-03    1.0120000000e+05
    3.3898798283e-03    1.0120000000e+05
    3.3998202998e-03    1.0120000000e+05
    3.4096955787e-03    1.0120000000e+05
    3.4198551439e-03    1.0120000000e+05
    3.4299462568e-03    1.0120000000e+05
    3.4399686847e-03    1.0120000000e+05
    3.4499231260e-03    1.0120000000e+05
    3.4598100465e-03    1.0120000000e+05
    3.4699672833e-03    1.0120000000e+05
    3.4797179978e-03    1.0120000000e+05
    3.4897357691e-03    1.0120000000e+05
    3.4996827599e-03    1.0120000000e+05
    3.5098877270e-03    1.0120000000e+05
    3.5196926910e-03    1.0120000000e+05
    3.5297509748e-03    1.0120000000e+05
    3.5397359170e-03    1.0120000000e+05
    3.5499657970e-03    1.0120000000e+05
    3.5598019604e-03    1.0120000000e+05
    3.5698791035e-03    1.0120000000e+05
    3.5798787139e-03    1.0120000000e+05
    3.5898012575e-03    1.0120000000e+05
    3.5999531392e-03    1.0120000000e+05
    3.6097201519e-03    1.0120000000e+05
    3.6197120789e-03    1.0120000000e+05
    3.6299224012e-03    1.0120000000e+05
    3.6397501826e-03    1.0120000000e+05
    3.6497914698e-03    1.0120000000e+05
    3.6597470753e-03    1.0120000000e+05
    3.6699061748e-03    1.0120000000e+05
    3.6799744703e-03    1.0120000000e+05
    3.6899528932e-03    1.0120000000e+05
    3.6998407450e-03    1.0120000000e+05
    3.7099167239e-03    1.0120000000e+05
    3.7198967766e-03    1.0120000000e+05
    3.7297809031e-03    1.0120000000e+05
    3.7398391869e-03    1.0120000000e+05
    3.7497959565e-03    1.0120000000e+05
    3.7599154748e-03    1.0120000000e+05
    3.7699274253e-03    1.0120000000e+05
    3.7798301782e-03    1.0120000000e+05
    3.7898807786e-03    1.0120000000e+05
    3.7998156622e-03    1.0120000000e+05
    3.8098851219e-03    1.0120000000e+05
    3.8198318798e-03    1.0120000000e+05
    3.8298985455e-03    1.0120000000e+05
    3.8398343604e-03    1.0120000000e+05
    3.8498751819e-03    1.0120000000e+05
    3.8597758394e-03    1.0120000000e+05
    3.8699957076e-03    1.0120000000e+05
    3.8798309397e-03    1.0120000000e+05
    3.8899602368e-03    1.0120000000e+05
    3.8999195676e-03    1.0120000000e+05
    3.9099217393e-03    1.0120000000e+05
    3.9199516177e-03    1.0120000000e+05
    3.9299926721e-03    1.0120000000e+05
    3.9398246445e-03    1.0120000000e+05
    3.9498377591e-03    1.0120000000e+05
    3.9599975571e-03    1.0120000000e+05
    3.9698891342e-03    1.0120000000e+05
    3.9798668586e-03    1.0120000000e+05
    3.9898836985e-03    1.0120000000e+05
    3.9998856373e-03    1.0120000000e+05
    4.0099709295e-03    1.0120000000e+05
    4.0198862553e-03    1.0120000000e+05
    4.0299654938e-03    1.0120000000e+05
    4.0399804711e-03    1.0120000000e+05
    4.0499502793e-03    1.0120000000e+05
    4.0599354543e-03    1.0120000000e+05
    4.0699252859e-03    1.0120000000e+05
    4.0799905546e-03    1.0120000000e+05
    4.0899850428e-03    1.0120000000e+05
    4.0999636985e-03    1.0120000000e+05
    4.1099484079e-03    1.0120000000e+05
    4.1199969128e-03    1.0120000000e+05
    4.1299550794e-03    1.0120000000e+05
    4.1399644688e-03    1.0120000000e+05
    4.1499221697e-03    1.0120000000e+05
    4.1598407552e-03    1.0120000000e+05
    4.1698846035e-03    1.0120000000e+05
    4.1798949242e-03    1.0120000000e+05
    4.1898926720e-03    1.0120000000e+05
    4.1999369860e-03    1.0120000000e+05
    4.2099659331e-03    1.0120000000e+05
    4.2198617011e-03    1.0120000000e+05
    4.2298971675e-03    1.0120000000e+05
    4.2399708182e-03    1.0120000000e+05
    4.2499830015e-03    1.0120000000e+05
    4.2598554865e-03    1.0120000000e+05
    4.2699966580e-03    1.0120000000e+05
    4.2798174545e-03    1.0120000000e+05
    4.2899190448e-03    1.0120000000e+05
    4.2998511344e-03    1.0120000000e+05
    4.3098768219e-03    1.0120000000e+05
    4.3199378997e-03    1.0120000000e+05
    4.3298783712e-03    1.0120000000e+05
    4.3398416601e-03    1.0120000000e+05
    4.3498817831e-03    1.0120000000e+05
    4.3599558994e-03    1.0120000000e+05
    4.3698921800e-03    1.0120000000e+05
    4.3798671104e-03    1.0120000000e+05
    4.3898811564e-03    1.0120000000e+05
    4.3999413028e-03    1.0120000000e+05
    4.4098342769e-03    1.0120000000e+05
    4.4199945405e-03    1.0120000000e+05
    4.4299615547e-03    1.0120000000e+05
    4.4398009777e-03    1.0120000000e+05
    4.4498429634e-03    1.0120000000e+05
    4.4599645771e-03    1.0120000000e+05
    4.4698812999e-03    1.0120000000e+05
    4.4798525050e-03    1.0120000000e+05
    4.4898604974e-03    1.0120000000e+05
    4.4998801313e-03    1.0120000000e+05
    4.5099789277e-03    1.0120000000e+05
    4.5198416337e-03    1.0120000000e+05
    4.5298109762e-03    1.0120000000e+05
    4.5399488881e-03    1.0120000000e+05
    4.5499685220e-03    1.0120000000e+05
    4.5599844307e-03    1.0120000000e+05
    4.5698145404e-03    1.0120000000e+05
    4.5799338259e-03    1.0120000000e+05
    4.5898030512e-03    1.0120000000e+05
    4.5999838039e-03    1.0120000000e+05
    4.6099307947e-03    1.0120000000e+05
    4.6199252829e-03    1.0120000000e+05
    4.6299635433e-03    1.0120000000e+05
    4.6397903934e-03    1.0120000000e+05
    4.6498975717e-03    1.0120000000e+05
    4.6597919427e-03    1.0120000000e+05
    4.6699494123e-03    1.0120000000e+05
    4.6799178235e-03    1.0120000000e+05
    4.6899016015e-03    1.0120000000e+05
    4.6999347396e-03    1.0120000000e+05
    4.7099841759e-03    1.0120000000e+05
    4.7198319808e-03    1.0120000000e+05
    4.7299438156e-03    1.0120000000e+05
    4.7398507595e-03    1.0120000000e+05
    4.7497753985e-03    1.0120000000e+05
    4.7599631362e-03    1.0120000000e+05
    4.7699436545e-03    1.0120000000e+05
    4.7799423337e-03    1.0120000000e+05
    4.7899722122e-03    1.0120000000e+05
    4.7997953370e-03    1.0120000000e+05
    4.8098559491e-03    1.0120000000e+05
    4.8199496232e-03    1.0120000000e+05
    4.8298356123e-03    1.0120000000e+05
    4.8399581574e-03    1.0120000000e+05
    4.8498781398e-03    1.0120000000e+05
    4.8598204739e-03    1.0120000000e+05
    4.8697702587e-03    1.0120000000e+05
    4.8799719661e-03    1.0120000000e+05
    4.8899641261e-03    1.0120000000e+05
    4.8999679275e-03    1.0120000000e+05
    4.9099833705e-03    1.0120000000e+05
    4.9197860062e-03    1.0120000000e+05
    4.9298400991e-03    1.0120000000e+05
    4.9398951232e-03    1.0120000000e+05
    4.9499701709e-03    1.0120000000e+05
    4.9598258920e-03    1.0120000000e+05
    4.9699237570e-03    1.0120000000e+05
    4.9797925167e-03    1.0120000000e+05
    4.9899136648e-03    1.0120000000e+05
    4.9998066388e-03    1.0120000000e+05
    5.0099394284e-03    1.0120000000e+05
    5.0198445097e-03    1.0120000000e+05
    5.0299945287e-03    1.0120000000e+05
    5.0399112515e-03    1.0120000000e+05
    5.0498321652e-03    1.0120000000e+05
    5.0599914975e-03    1.0120000000e+05
    5.0699147396e-03    1.0120000000e+05
    5.0798379816e-03    1.0120000000e+05
    5.0899982452e-03    1.0120000000e+05
    5.0999224186e-03    1.0120000000e+05
    5.1098470576e-03    1.0120000000e+05
    5.1197716966e-03    1.0120000000e+05
    5.1299328916e-03    1.0120000000e+05
    5.1398575306e-03    1.0120000000e+05
    5.1497821696e-03    1.0120000000e+05
    5.1599428989e-03    1.0120000000e+05
    5.1698670723e-03    1.0120000000e+05
    5.1797907799e-03    1.0120000000e+05
    5.1899505779e-03    1.0120000000e+05
    5.1998738199e-03    1.0120000000e+05
    5.2097961307e-03    1.0120000000e+05
    5.2199545316e-03    1.0120000000e+05
    5.2298763767e-03    1.0120000000e+05
    5.2397972904e-03    1.0120000000e+05
    5.2499538288e-03    1.0120000000e+05
    5.2598738112e-03    1.0120000000e+05
    5.2697928622e-03    1.0120000000e+05
    5.2799456753e-03    1.0120000000e+05
    5.2898628637e-03    1.0120000000e+05
    5.2997819148e-03    1.0120000000e+05
    5.3099310026e-03    1.0120000000e+05
    5.3198416717e-03    1.0120000000e+05
    5.3297644481e-03    1.0120000000e+05
    5.3399191238e-03    1.0120000000e+05
    5.3498242050e-03    1.0120000000e+05
    5.3599844687e-03    1.0120000000e+05
    5.3699230775e-03    1.0120000000e+05
    5.3798500448e-03    1.0120000000e+05
    5.3897812031e-03    1.0120000000e+05
    5.3999726661e-03    1.0120000000e+05
    5.4099266417e-03    1.0120000000e+05
    5.4198848084e-03    1.0120000000e+05
    5.4298588075e-03    1.0120000000e+05
    5.4398379289e-03    1.0120000000e+05
    5.4498193786e-03    1.0120000000e+05
    5.4598189890e-03    1.0120000000e+05
    5.4698293097e-03    1.0120000000e+05
    5.4798340425e-03    1.0120000000e+05
    5.4898508824e-03    1.0120000000e+05
    5.4998891428e-03    1.0120000000e+05
    5.5099288002e-03    1.0120000000e+05
    5.5199647322e-03    1.0120000000e+05
    5.5297757499e-03    1.0120000000e+05
    5.5398438126e-03    1.0120000000e+05
    5.5499104783e-03    1.0120000000e+05
    5.5599799380e-03    1.0120000000e+05
    5.5698216893e-03    1.0120000000e+05
    5.5799181573e-03    1.0120000000e+05
    5.5897752754e-03    1.0120000000e+05
    5.5998768657e-03    1.0120000000e+05
    5.6099900976e-03    1.0120000000e+05
    5.6198732927e-03    1.0120000000e+05
    5.6297639385e-03    1.0120000000e+05
    5.6398948655e-03    1.0120000000e+05
    5.6497920305e-03    1.0120000000e+05
    5.6599434465e-03    1.0120000000e+05
    5.6698615663e-03    1.0120000000e+05
    5.6797787547e-03    1.0120000000e+05
    5.6899418123e-03    1.0120000000e+05
    5.6998776272e-03    1.0120000000e+05
    5.7098227553e-03    1.0120000000e+05
    5.7197711430e-03    1.0120000000e+05
    5.7299621403e-03    1.0120000000e+05
    5.7399235666e-03    1.0120000000e+05
    5.7498943061e-03    1.0120000000e+05
    5.7598664425e-03    1.0120000000e+05
    5.7698381133e-03    1.0120000000e+05
    5.7798172347e-03    1.0120000000e+05
    5.7898112573e-03    1.0120000000e+05
    5.7998066768e-03    1.0120000000e+05
    5.8098062873e-03    1.0120000000e+05
    5.8198086917e-03    1.0120000000e+05
    5.8298264630e-03    1.0120000000e+05
    5.8398474939e-03    1.0120000000e+05
    5.8498680592e-03    1.0120000000e+05
    5.8598951437e-03    1.0120000000e+05
    5.8699320070e-03    1.0120000000e+05
    5.8799791150e-03    1.0120000000e+05
    5.8897780254e-03    1.0120000000e+05
    5.8998265304e-03    1.0120000000e+05
    5.9098824859e-03    1.0120000000e+05
    5.9199496172e-03    1.0120000000e+05
    5.9297690168e-03    1.0120000000e+05
    5.9398324229e-03    1.0120000000e+05
    5.9499107301e-03    1.0120000000e+05
    5.9599950910e-03    1.0120000000e+05
    5.9698424302e-03    1.0120000000e+05
    5.9799263254e-03    1.0120000000e+05
    5.9897741303e-03    1.0120000000e+05
    5.9998789802e-03    1.0120000000e+05
    6.0099884868e-03    1.0120000000e+05
    6.0198511928e-03    1.0120000000e+05
    6.0299579054e-03    1.0120000000e+05
    6.0398345813e-03    1.0120000000e+05
    6.0499594547e-03    1.0120000000e+05
    6.0598449782e-03    1.0120000000e+05
    6.0699707828e-03    1.0120000000e+05
    6.0798567720e-03    1.0120000000e+05
    6.0897562653e-03    1.0120000000e+05
    6.0998992994e-03    1.0120000000e+05
    6.1098043807e-03    1.0120000000e+05
    6.1199488118e-03    1.0120000000e+05
    6.1298627406e-03    1.0120000000e+05
    6.1397748068e-03    1.0120000000e+05
    6.1499378644e-03    1.0120000000e+05
    6.1598625034e-03    1.0120000000e+05
    6.1697820202e-03    1.0120000000e+05
    6.1799669638e-03    1.0120000000e+05
    6.1898906715e-03    1.0120000000e+05
    6.1998274177e-03    1.0120000000e+05
    6.2097678892e-03    1.0120000000e+05
    6.2199598178e-03    1.0120000000e+05
    6.2299082056e-03    1.0120000000e+05
    6.2398463488e-03    1.0120000000e+05
    6.2498059124e-03    1.0120000000e+05
    6.2597673386e-03    1.0120000000e+05
    6.2699834816e-03    1.0120000000e+05
    6.2799425796e-03    1.0120000000e+05
    6.2898998149e-03    1.0120000000e+05
    6.2998742796e-03    1.0120000000e+05
    6.3098510727e-03    1.0120000000e+05
    6.3198353164e-03    1.0120000000e+05
    6.3298195601e-03    1.0120000000e+05
    6.3398010097e-03    1.0120000000e+05
    6.3497810625e-03    1.0120000000e+05
    6.3597578555e-03    1.0120000000e+05
    6.3699851744e-03    1.0120000000e+05
    6.3799703494e-03    1.0120000000e+05
    6.3899629749e-03    1.0120000000e+05
    6.3999528065e-03    1.0120000000e+05
    6.4099398442e-03    1.0120000000e+05
    6.4199254848e-03    1.0120000000e+05
    6.4299101941e-03    1.0120000000e+05
    6.4398930408e-03    1.0120000000e+05
    6.4498772845e-03    1.0120000000e+05
    6.4598657191e-03    1.0120000000e+05
    6.4698611386e-03    1.0120000000e+05
    6.4798588865e-03    1.0120000000e+05
    6.4898552373e-03    1.0120000000e+05
    6.4998497255e-03    1.0120000000e+05
    6.5098432824e-03    1.0120000000e+05
    6.5198359080e-03    1.0120000000e+05
    6.5298285335e-03    1.0120000000e+05
    6.5398206934e-03    1.0120000000e+05
    6.5498137847e-03    1.0120000000e+05
    6.5598078072e-03    1.0120000000e+05
    6.5698008984e-03    1.0120000000e+05
    6.5797939897e-03    1.0120000000e+05
    6.5897866152e-03    1.0120000000e+05
    6.5997792408e-03    1.0120000000e+05
    6.6097718664e-03    1.0120000000e+05
    6.6197640263e-03    1.0120000000e+05
    6.6297561862e-03    1.0120000000e+05
    6.6399974748e-03    1.0120000000e+05
    6.6499891691e-03    1.0120000000e+05
    6.6599803977e-03    1.0120000000e+05
    6.6699711606e-03    1.0120000000e+05
    6.6799619235e-03    1.0120000000e+05
    6.6899522208e-03    1.0120000000e+05
    6.6999420524e-03    1.0120000000e+05
    6.7099318840e-03    1.0120000000e+05
    6.7199207842e-03    1.0120000000e+05
    6.7299096845e-03    1.0120000000e+05
    6.7398981191e-03    1.0120000000e+05
    6.7498865537e-03    1.0120000000e+05
    6.7598740570e-03    1.0120000000e+05
    6.7698615603e-03    1.0120000000e+05
    6.7798495293e-03    1.0120000000e+05
    6.7898379639e-03    1.0120000000e+05
    6.7998277955e-03    1.0120000000e+05
    6.8098190241e-03    1.0120000000e+05
    6.8198107183e-03    1.0120000000e+05
    6.8298010156e-03    1.0120000000e+05
    6.8397899158e-03    1.0120000000e+05
    6.8497778848e-03    1.0120000000e+05
    6.8597653881e-03    1.0120000000e+05
    6.8697514944e-03    1.0120000000e+05
    6.8799885921e-03    1.0120000000e+05
    6.8899802864e-03    1.0120000000e+05
    6.8999752402e-03    1.0120000000e+05
    6.9099701941e-03    1.0120000000e+05
    6.9199637510e-03    1.0120000000e+05
    6.9299563766e-03    1.0120000000e+05
    6.9399485365e-03    1.0120000000e+05
    6.9499406964e-03    1.0120000000e+05
    6.9599309936e-03    1.0120000000e+05
    6.9699240848e-03    1.0120000000e+05
    6.9799218327e-03    1.0120000000e+05
    6.9899191149e-03    1.0120000000e+05
    6.9999145344e-03    1.0120000000e+05
    7.0099099539e-03    1.0120000000e+05
    7.0199039765e-03    1.0120000000e+05
    7.0298993960e-03    1.0120000000e+05
    7.0398999378e-03    1.0120000000e+05
    7.0499004796e-03    1.0120000000e+05
    7.0599000901e-03    1.0120000000e+05
    7.0698992349e-03    1.0120000000e+05
    7.0798969828e-03    1.0120000000e+05
    7.0898970589e-03    1.0120000000e+05
    7.0999008603e-03    1.0120000000e+05
    7.1099037305e-03    1.0120000000e+05
    7.1199061349e-03    1.0120000000e+05
    7.1299076080e-03    1.0120000000e+05
    7.1399090812e-03    1.0120000000e+05
    7.1499147452e-03    1.0120000000e+05
    7.1599204093e-03    1.0120000000e+05
    7.1699256077e-03    1.0120000000e+05
    7.1799298748e-03    1.0120000000e+05
    7.1899336763e-03    1.0120000000e+05
    7.1999416687e-03    1.0120000000e+05
    7.2099491954e-03    1.0120000000e+05
    7.2199562564e-03    1.0120000000e+05
    7.2299623862e-03    1.0120000000e+05
    7.2399699129e-03    1.0120000000e+05
    7.2499797679e-03    1.0120000000e+05
    7.2599882260e-03    1.0120000000e+05
    7.2699966840e-03    1.0120000000e+05
    7.2797546163e-03    1.0120000000e+05
    7.2897649370e-03    1.0120000000e+05
    7.2997747920e-03    1.0120000000e+05
    7.3097841814e-03    1.0120000000e+05
    7.3197935708e-03    1.0120000000e+05
    7.3298038915e-03    1.0120000000e+05
    7.3398137465e-03    1.0120000000e+05
    7.3498236015e-03    1.0120000000e+05
    7.3598329909e-03    1.0120000000e+05
    7.3698428459e-03    1.0120000000e+05
    7.3798527010e-03    1.0120000000e+05
    7.3898620903e-03    1.0120000000e+05
    7.3998714797e-03    1.0120000000e+05
    7.4098813348e-03    1.0120000000e+05
    7.4198907241e-03    1.0120000000e+05
    7.4298996478e-03    1.0120000000e+05
    7.4399085715e-03    1.0120000000e+05
    7.4499179609e-03    1.0120000000e+05
    7.4599264190e-03    1.0120000000e+05
    7.4699348770e-03    1.0120000000e+05
    7.4799433351e-03    1.0120000000e+05
    7.4899513274e-03    1.0120000000e+05
    7.4999593198e-03    1.0120000000e+05
    7.5099673122e-03    1.0120000000e+05
    7.5199748389e-03    1.0120000000e+05
    7.5299823657e-03    1.0120000000e+05
    7.5399898924e-03    1.0120000000e+05
    7.5499969535e-03    1.0120000000e+05
    7.5597544201e-03    1.0120000000e+05
    7.5697619468e-03    1.0120000000e+05
    7.5797699392e-03    1.0120000000e+05
    7.5897783972e-03    1.0120000000e+05
    7.5997863896e-03    1.0120000000e+05
    7.6097967103e-03    1.0120000000e+05
    7.6198070310e-03    1.0120000000e+05
    7.6298196800e-03    1.0120000000e+05
    7.6398341917e-03    1.0120000000e+05
    7.6498510316e-03    1.0120000000e+05
    7.6598711312e-03    1.0120000000e+05
    7.6698916964e-03    1.0120000000e+05
    7.6799113303e-03    1.0120000000e+05
    7.6899304986e-03    1.0120000000e+05
    7.6999492012e-03    1.0120000000e+05
    7.7099683695e-03    1.0120000000e+05
    7.7199866064e-03    1.0120000000e+05
    7.7297552489e-03    1.0120000000e+05
    7.7397739515e-03    1.0120000000e+05
    7.7497931197e-03    1.0120000000e+05
    7.7598141506e-03    1.0120000000e+05
    7.7698351815e-03    1.0120000000e+05
    7.7798571438e-03    1.0120000000e+05
    7.7898800373e-03    1.0120000000e+05
    7.7999075875e-03    1.0120000000e+05
    7.8099411912e-03    1.0120000000e+05
    7.8199747950e-03    1.0120000000e+05
    7.8297620639e-03    1.0120000000e+05
    7.8398035839e-03    1.0120000000e+05
    7.8498506919e-03    1.0120000000e+05
    7.8599005938e-03    1.0120000000e+05
    7.8699504957e-03    1.0120000000e+05
    7.8797517344e-03    1.0120000000e+05
    7.8898072243e-03    1.0120000000e+05
    7.8998664394e-03    1.0120000000e+05
    7.9099275172e-03    1.0120000000e+05
    7.9199895263e-03    1.0120000000e+05
    7.9298093915e-03    1.0120000000e+05
    7.9398974776e-03    1.0120000000e+05
    7.9499911517e-03    1.0120000000e+05
    7.9598361626e-03    1.0120000000e+05
    7.9699354246e-03    1.0120000000e+05
    7.9797822982e-03    1.0120000000e+05
    7.9898815602e-03    1.0120000000e+05
    7.9999789596e-03    1.0120000781e+05
    8.0098239705e-03    1.0256780469e+05
    8.0199213699e-03    2.2547868750e+05
    8.0297701061e-03    2.2426770312e+05
    8.0398721620e-03    2.2359451562e+05
    8.0499742180e-03    2.2292210938e+05
    8.0598229542e-03    2.2226973438e+05
    8.0699231476e-03    2.2160489062e+05
    8.0797718838e-03    2.2096042188e+05
    8.0898730084e-03    2.2030317188e+05
    8.0999750644e-03    2.1964979688e+05
    8.1098228693e-03    2.1901650000e+05
    8.1199249253e-03    2.1837060938e+05
    8.1297745928e-03    2.1774432812e+05
    8.1398803741e-03    2.1710539062e+05
    8.1499861553e-03    2.1647029688e+05
    8.1598423421e-03    2.1585460938e+05
    8.1699499860e-03    2.1522679688e+05
    8.1798136234e-03    2.1461754688e+05
    8.1899361685e-03    2.1399587500e+05
    8.1998081878e-03    2.1339298438e+05
    8.2099363208e-03    2.1277793750e+05
    8.2198167220e-03    2.1218142188e+05
    8.2299597561e-03    2.1157248438e+05
    8.2398531958e-03    2.1098195312e+05
    8.2497494295e-03    2.1039445312e+05
    8.2599110901e-03    2.0979468750e+05
    8.2698222250e-03    2.0921292188e+05
    8.2799931988e-03    2.0861918750e+05
    8.2899080589e-03    2.0804362500e+05
    8.2998350263e-03    2.0747070312e+05
    8.3097722381e-03    2.0690042188e+05
    8.3199730143e-03    2.0631825000e+05
    8.3299176767e-03    2.0575370312e+05
    8.3398614079e-03    2.0519232812e+05
    8.3498135209e-03    2.0463382812e+05
    8.3597805351e-03    2.0407795312e+05
    8.3697522059e-03    2.0352467188e+05
    8.3799809217e-03    2.0295951562e+05
    8.3899507299e-03    2.0241156250e+05
    8.3999270573e-03    2.0186710938e+05
    8.4099164233e-03    2.0132570312e+05
    8.4199141711e-03    2.0078650000e+05
    8.4299109876e-03    2.0024910938e+05
    8.4399078041e-03    1.9971432812e+05
    8.4499092773e-03    1.9918295312e+05
    8.4599219263e-03    1.9865479688e+05
    8.4699438885e-03    1.9812864062e+05
    8.4799695760e-03    1.9760443750e+05
    8.4899943322e-03    1.9708306250e+05
    8.4997648373e-03    1.9657839062e+05
    8.5097989067e-03    1.9606307812e+05
    8.5198385641e-03    1.9554968750e+05
    8.5298903286e-03    1.9503785938e+05
    8.5399392992e-03    1.9452918750e+05
    8.5499929264e-03    1.9402370312e+05
    8.5597913712e-03    1.9353385938e+05
    8.5698543116e-03    1.9303306250e+05
    8.5799256340e-03    1.9253417188e+05
    8.5897464305e-03    1.9205037500e+05
    8.5998186842e-03    1.9155695312e+05
    8.6099002510e-03    1.9106600000e+05
    8.6199846119e-03    1.9057732812e+05
    8.6298212409e-03    1.9010314062e+05
    8.6399242282e-03    1.8961867188e+05
    8.6497683078e-03    1.8914914062e+05
    8.6598657072e-03    1.8867007812e+05
    8.6699724197e-03    1.8819320312e+05
    8.6798304692e-03    1.8773042188e+05
    8.6899530143e-03    1.8725773438e+05
    8.6998241022e-03    1.8679920312e+05
    8.7099494413e-03    1.8633129688e+05
    8.7198140100e-03    1.8587785938e+05
    8.7299449369e-03    1.8541456250e+05
    8.7398318574e-03    1.8496482812e+05
    8.7499804795e-03    1.8450560938e+05
    8.7598729879e-03    1.8406031250e+05
    8.7697580457e-03    1.8361757812e+05
    8.7799085304e-03    1.8316535938e+05
    8.7898066267e-03    1.8272657812e+05
    8.7999776006e-03    1.8227800000e+05
    8.8098887354e-03    1.8184320312e+05
    8.8198026642e-03    1.8141064062e+05
    8.8299699128e-03    1.8096932812e+05
    8.8398829103e-03    1.8054135938e+05
    8.8498117402e-03    1.8011462500e+05
    8.8597461581e-03    1.7968967188e+05
    8.8699404150e-03    1.7925600000e+05
    8.8798757643e-03    1.7883573438e+05
    8.8898083195e-03    1.7841781250e+05
    8.8997418061e-03    1.7800170312e+05
    8.9099584147e-03    1.7757576562e+05
    8.9199123904e-03    1.7716289062e+05
    8.9298635721e-03    1.7675242188e+05
    8.9398194104e-03    1.7634389062e+05
    8.9497789741e-03    1.7593729688e+05
    8.9599993080e-03    1.7552212500e+05
    8.9699709788e-03    1.7511917188e+05
    8.9799445122e-03    1.7471801562e+05
    8.9899217710e-03    1.7431864062e+05
    8.9999036863e-03    1.7392103125e+05
    9.0098911896e-03    1.7352542188e+05
    9.0198805556e-03    1.7313187500e+05
    9.0298745781e-03    1.7273998438e+05
    9.0398611501e-03    1.7235012500e+05
    9.0498551726e-03    1.7196187500e+05
    9.0598631650e-03    1.7157514062e+05
    9.0698748827e-03    1.7119031250e+05
    9.0798912570e-03    1.7080717188e+05
    9.0899085626e-03    1.7042584375e+05
    9.0999156237e-03    1.7004676562e+05
    9.1099264100e-03    1.6966950000e+05
    9.1199558228e-03    1.6929342188e+05
    9.1299861670e-03    1.6891910938e+05
    9.1397566721e-03    1.6855628125e+05
    9.1497953981e-03    1.6818531250e+05
    9.1598276049e-03    1.6781639062e+05
    9.1698532924e-03    1.6744957812e+05
    9.1798976064e-03    1.6708390625e+05
    9.1899503022e-03    1.6671960938e+05
    9.1997394338e-03    1.6636660938e+05
    9.2097911984e-03    1.6600587500e+05
    9.2198448256e-03    1.6564684375e+05
    9.2299040407e-03    1.6528931250e+05
    9.2399660498e-03    1.6493343750e+05
    9.2497728765e-03    1.6458829688e+05
    9.2598488554e-03    1.6423546875e+05
    9.2699248344e-03    1.6388435938e+05
    9.2799933627e-03    1.6353517188e+05
    9.2898095027e-03    1.6319628125e+05
    9.2999013141e-03    1.6284948438e+05
    9.3099931255e-03    1.6250445312e+05
    9.3198167160e-03    1.6217037500e+05
    9.3299122527e-03    1.6182873438e+05
    9.3397358432e-03    1.6149775000e+05
    9.3498285860e-03    1.6115917188e+05
    9.3599343672e-03    1.6082171875e+05
    9.3697831035e-03    1.6049450000e+05
    9.3798991293e-03    1.6016006250e+05
    9.3897506595e-03    1.5983596875e+05
    9.3998713419e-03    1.5950468750e+05
    9.4099817798e-03    1.5917529688e+05
    9.4198323786e-03    1.5885579688e+05
    9.4299614429e-03    1.5852867188e+05
    9.4398278743e-03    1.5821154688e+05
    9.4499662519e-03    1.5788740625e+05
    9.4598419964e-03    1.5757320312e+05
    9.4699813053e-03    1.5725198438e+05
    9.4798505306e-03    1.5694070312e+05
    9.4899823889e-03    1.5662268750e+05
    9.4998590648e-03    1.5631426562e+05
    9.5097506419e-03    1.5600678125e+05
    9.5199095085e-03    1.5569239062e+05
    9.5298038796e-03    1.5538757812e+05
    9.5399636775e-03    1.5507606250e+05
    9.5498543233e-03    1.5477428125e+05
    9.5597365871e-03    1.5447410938e+05
    9.5698982477e-03    1.5416690625e+05
    9.5798075199e-03    1.5386875000e+05
    9.5899868757e-03    1.5356387500e+05
    9.5998980105e-03    1.5326840625e+05
    9.6098054200e-03    1.5297435938e+05
    9.6199819818e-03    1.5267373438e+05
    9.6298931167e-03    1.5238232812e+05
    9.6398089081e-03    1.5209207812e+05
    9.6497340128e-03    1.5180290625e+05
    9.6599319950e-03    1.5150715625e+05
    9.6698636189e-03    1.5122045312e+05
    9.6797933802e-03    1.5093515625e+05
    9.6899820492e-03    1.5064375000e+05
    9.6999118105e-03    1.5036101562e+05
    9.7098536789e-03    1.5007917188e+05
    9.7197983414e-03    1.4979851562e+05
    9.7297420725e-03    1.4951923438e+05
    9.7399614751e-03    1.4923362500e+05
    9.7499182448e-03    1.4895657812e+05
    9.7598684952e-03    1.4868090625e+05
    9.7698168829e-03    1.4840648438e+05
    9.7797755152e-03    1.4813304688e+05
    9.7897425294e-03    1.4786059375e+05
    9.7999796271e-03    1.4758196875e+05
    9.8099466413e-03    1.4731193750e+05
    9.8199183121e-03    1.4704309375e+05
    9.8298955709e-03    1.4677540625e+05
    9.8398653790e-03    1.4650903125e+05
    9.8498417065e-03    1.4624357812e+05
    9.8598236218e-03    1.4597915625e+05
    9.8698111251e-03    1.4571581250e+05
    9.8798032850e-03    1.4545353125e+05
    9.8897973076e-03    1.4519231250e+05
    9.8997969180e-03    1.4493209375e+05
    9.9097955972e-03    1.4467312500e+05
    9.9197914824e-03    1.4441542188e+05
    9.9297882989e-03    1.4415878125e+05
    9.9397916347e-03    1.4390309375e+05
    9.9498005584e-03    1.4364839062e+05
    9.9598160014e-03    1.4339470312e+05
    9.9698361009e-03    1.4314198438e+05
    9.9798589945e-03    1.4289029688e+05
    9.9898781627e-03    1.4263979688e+05
    9.9998945370e-03    1.4239048438e+05
    1.0009909980e-02    1.4214229688e+05
    1.0019929148e-02    1.4189510938e+05
    1.0029963218e-02    1.4164864062e+05
    1.0039732791e-02    1.4140967188e+05
    1.0049775243e-02    1.4116509375e+05
    1.0059817694e-02    1.4092159375e+05
    1.0069858283e-02    1.4067923438e+05
    1.0079895146e-02    1.4043806250e+05
    1.0089927353e-02    1.4019807812e+05
    1.0099967942e-02    1.3995893750e+05
    1.0109751485e-02    1.3972684375e+05
    1.0119815357e-02    1.3948909375e+05
    1.0129879229e-02    1.3925239062e+05
    1.0139942169e-02    1.3901679688e+05
    1.0149731301e-02    1.3878865625e+05
    1.0159787722e-02    1.3855526562e+05
    1.0169844143e-02    1.3832282812e+05
    1.0179909877e-02    1.3809112500e+05
    1.0189987719e-02    1.3786009375e+05
    1.0199801065e-02    1.3763610938e+05
    1.0209886357e-02    1.3740700000e+05
    1.0219969787e-02    1.3717898438e+05
    1.0229783133e-02    1.3695804688e+05
    1.0239868425e-02    1.3673187500e+05
    1.0249954648e-02    1.3650657812e+05
    1.0259777308e-02    1.3628817188e+05
    1.0269882157e-02    1.3606445312e+05
    1.0279990733e-02    1.3584157812e+05
    1.0289821774e-02    1.3562573438e+05
    1.0299926624e-02    1.3540484375e+05
    1.0309765115e-02    1.3519073438e+05
    1.0319881141e-02    1.3497151562e+05
    1.0329727083e-02    1.3475898438e+05
    1.0339851491e-02    1.3454135938e+05
    1.0349984281e-02    1.3432450000e+05
    1.0359848849e-02    1.3411429688e+05
    1.0369985364e-02    1.3389918750e+05
    1.0379848070e-02    1.3369076562e+05
    1.0389989242e-02    1.3347735938e+05
    1.0399861261e-02    1.3327050000e+05
    1.0409732349e-02    1.3306451562e+05
    1.0419879109e-02    1.3285365625e+05
    1.0429759510e-02    1.3264918750e+05
    1.0439915583e-02    1.3243985938e+05
    1.0449797846e-02    1.3223703125e+05
    1.0459965095e-02    1.3202928125e+05
    1.0469862260e-02    1.3182789062e+05
    1.0479761288e-02    1.3162729688e+05
    1.0489935055e-02    1.3142196875e+05
    1.0499834083e-02    1.3122300000e+05
    1.0509731248e-02    1.3102485156e+05
    1.0519903153e-02    1.3082210156e+05
    1.0529799387e-02    1.3062572656e+05
    1.0539968498e-02    1.3042478906e+05
    1.0549862869e-02    1.3023008594e+05
    1.0559757240e-02    1.3003609375e+05
    1.0569927283e-02    1.2983747656e+05
    1.0579822585e-02    1.2964502344e+05
    1.0589992628e-02    1.2944808594e+05
    1.0599886999e-02    1.2925733594e+05
    1.0609782301e-02    1.2906736719e+05
    1.0619955137e-02    1.2887284375e+05
    1.0629854165e-02    1.2868427344e+05
    1.0639752261e-02    1.2849647656e+05
    1.0649924167e-02    1.2830431250e+05
    1.0659820400e-02    1.2811814844e+05
    1.0669990443e-02    1.2792757031e+05
    1.0679883882e-02    1.2774291406e+05
    1.0689777322e-02    1.2755903906e+05
    1.0699944571e-02    1.2737087500e+05
    1.0709838942e-02    1.2718847656e+05
    1.0719733313e-02    1.2700678906e+05
    1.0729904287e-02    1.2682082031e+05
    1.0739800520e-02    1.2664060156e+05
    1.0749970563e-02    1.2645613281e+05
    1.0759864934e-02    1.2627736719e+05
    1.0769757442e-02    1.2609934375e+05
    1.0779924691e-02    1.2591716406e+05
    1.0789816268e-02    1.2574065625e+05
    1.0799982585e-02    1.2555996094e+05
    1.0809874162e-02    1.2538484375e+05
    1.0819766670e-02    1.2521038281e+05
    1.0829933919e-02    1.2503181250e+05
    1.0839825496e-02    1.2485880469e+05
    1.0849990882e-02    1.2468175781e+05
    1.0859880596e-02    1.2451021875e+05
    1.0869769379e-02    1.2433935156e+05
    1.0879932903e-02    1.2416439844e+05
    1.0889822617e-02    1.2399481250e+05
    1.0899986140e-02    1.2382119531e+05
    1.0909874924e-02    1.2365296094e+05
    1.0919762775e-02    1.2348542969e+05
    1.0929924436e-02    1.2331397656e+05
    1.0939811356e-02    1.2314786719e+05
    1.0949971154e-02    1.2297783594e+05
    1.0959857143e-02    1.2281303906e+05
    1.0969743133e-02    1.2264887500e+05
    1.0979903862e-02    1.2248083594e+05
    1.0989788920e-02    1.2231797656e+05
    1.0999947786e-02    1.2215122656e+05
    1.1009831913e-02    1.2198961719e+05
    1.1019988917e-02    1.2182422656e+05
    1.1029872112e-02    1.2166402344e+05
    1.1039756238e-02    1.2150441406e+05
    1.1049916036e-02    1.2134093750e+05
    1.1059801094e-02    1.2118246094e+05
    1.1069960892e-02    1.2102027344e+05
    1.1079845019e-02    1.2086314844e+05
    1.1089729145e-02    1.2070660156e+05
    1.1099893600e-02    1.2054621875e+05
    1.1109785177e-02    1.2039077344e+05
    1.1119954288e-02    1.2023160156e+05
    1.1129850522e-02    1.2007731250e+05
    1.1139744893e-02    1.1992361719e+05
    1.1149914004e-02    1.1976628906e+05
    1.1159805581e-02    1.1961385156e+05
    1.1169971898e-02    1.1945781250e+05
    1.1179861613e-02    1.1930658594e+05
    1.1189752258e-02    1.1915590625e+05
    1.1199918576e-02    1.1900160156e+05
    1.1209812015e-02    1.1885203125e+05
    1.1219983920e-02    1.1869884375e+05
    1.1229883879e-02    1.1855035156e+05
    1.1239781976e-02    1.1840246094e+05
    1.1249954812e-02    1.1825108594e+05
    1.1259850115e-02    1.1810444531e+05
    1.1269745417e-02    1.1795841406e+05
    1.1279914528e-02    1.1780893750e+05
    1.1289807037e-02    1.1766403906e+05
    1.1299975216e-02    1.1751571094e+05
    1.1309866793e-02    1.1737194531e+05
    1.1319758371e-02    1.1722867969e+05
    1.1329924688e-02    1.1708185156e+05
    1.1339815333e-02    1.1693935156e+05
    1.1349980719e-02    1.1679341406e+05
    1.1359871365e-02    1.1665210156e+05
    1.1369762011e-02    1.1651155469e+05
    1.1379927397e-02    1.1636787500e+05
    1.1389817111e-02    1.1622881250e+05
    1.1399981566e-02    1.1608660156e+05
    1.1409869418e-02    1.1594888281e+05
    1.1419757269e-02    1.1581161719e+05
    1.1429918930e-02    1.1567082031e+05
    1.1439804919e-02    1.1553394531e+05
    1.1449965648e-02    1.1539324219e+05
    1.1459851637e-02    1.1525639844e+05
    1.1469736695e-02    1.1511980469e+05
    1.1479898356e-02    1.1498000000e+05
    1.1489785276e-02    1.1484483594e+05
    1.1499946006e-02    1.1470709375e+05
    1.1509832926e-02    1.1457441406e+05
    1.1519996449e-02    1.1443947656e+05
    1.1529888026e-02    1.1430935156e+05
    1.1539782397e-02    1.1417999219e+05
    1.1549952440e-02    1.1404731250e+05
    1.1559848674e-02    1.1391796875e+05
    1.1569744907e-02    1.1378796094e+05
    1.1579924263e-02    1.1365328906e+05
    1.1589838192e-02    1.1352133594e+05
    1.1599759571e-02    1.1338885156e+05
    1.1609961279e-02    1.1325275000e+05
    1.1619890109e-02    1.1312102344e+05
    1.1629821733e-02    1.1299055469e+05
    1.1639760807e-02    1.1286174219e+05
    1.1649983004e-02    1.1273143750e+05
    1.1659935117e-02    1.1260688281e+05
    1.1669888161e-02    1.1248450000e+05
    1.1679844931e-02    1.1236381250e+05
    1.1689833365e-02    1.1224363281e+05
    1.1699862778e-02    1.1212283594e+05
    1.1709931307e-02    1.1200044531e+05
    1.1719758622e-02    1.1187936719e+05
    1.1729905382e-02    1.1175242969e+05
    1.1739806272e-02    1.1162685156e+05
    1.1749743484e-02    1.1149971094e+05
    1.1759716086e-02    1.1137181250e+05
    1.1769722216e-02    1.1124400781e+05
    1.1779760942e-02    1.1111689844e+05
    1.1789824814e-02    1.1099096094e+05
    1.1799912900e-02    1.1086642969e+05
    1.1809731834e-02    1.1074691406e+05
    1.1819852516e-02    1.1062553906e+05
    1.1829986237e-02    1.1050590625e+05
    1.1839843355e-02    1.1039133594e+05
    1.1849711649e-02    1.1027825781e+05
    1.1859891005e-02    1.1016297656e+05
    1.1869807728e-02    1.1005158594e+05
    1.1879757047e-02    1.0994019531e+05
    1.1889741756e-02    1.0982813281e+05
    1.1899758130e-02    1.0971485156e+05
    1.1909803376e-02    1.0960008594e+05
    1.1919868179e-02    1.0948388281e+05
    1.1929947883e-02    1.0936653906e+05
    1.1939740740e-02    1.0925193750e+05
    1.1949841864e-02    1.0913352344e+05
    1.1959956028e-02    1.0901503906e+05
    1.1969788931e-02    1.0890021094e+05
    1.1979939416e-02    1.0878219531e+05
    1.1989810504e-02    1.0866808594e+05
    1.1999702081e-02    1.0855439844e+05
    1.2009910308e-02    1.0843774219e+05
    1.2019829825e-02    1.0832507031e+05
    1.2029756792e-02    1.0821303906e+05
    1.2039990164e-02    1.0809841406e+05
    1.2049931102e-02    1.0798797656e+05
    1.2059891596e-02    1.0787825000e+05
    1.2069895864e-02    1.0776908594e+05
    1.2079969049e-02    1.0766028906e+05
    1.2089840136e-02    1.0755464844e+05
    1.2099849060e-02    1.0744830469e+05
    1.2109708041e-02    1.0734411719e+05
    1.2119745836e-02    1.0723846094e+05
    1.2129973620e-02    1.0713103906e+05
    1.2139718048e-02    1.0702872656e+05
    1.2149976566e-02    1.0692082031e+05
    1.2159713544e-02    1.0681816406e+05
    1.2169961818e-02    1.0670996094e+05
    1.2179649435e-02    1.0660766406e+05
    1.2189842761e-02    1.0650024219e+05
    1.2199811637e-02    1.0639555469e+05
    1.2209915556e-02    1.0628996094e+05
    1.2219771743e-02    1.0618749219e+05
    1.2229751796e-02    1.0608437500e+05
    1.2239852920e-02    1.0598059375e+05
    1.2249679305e-02    1.0588013281e+05
    1.2259617448e-02    1.0577893750e+05
    1.2269666418e-02    1.0567697656e+05
    1.2279825285e-02    1.0557421875e+05
    1.2289680541e-02    1.0547481250e+05
    1.2299633585e-02    1.0537466406e+05
    1.2309685349e-02    1.0527378125e+05
    1.2319839559e-02    1.0517215625e+05
    1.2329666875e-02    1.0507411719e+05
    1.2339587323e-02    1.0497553125e+05
    1.2349599041e-02    1.0487646094e+05
    1.2359695509e-02    1.0477688281e+05
    1.2369871140e-02    1.0467686719e+05
    1.2379676104e-02    1.0458081250e+05
    1.2389998883e-02    1.0448003906e+05
    1.2399937958e-02    1.0438341406e+05
    1.2409931980e-02    1.0428661719e+05
    1.2419967912e-02    1.0418975000e+05
    1.2429579161e-02    1.0409727344e+05
    1.2439681217e-02    1.0400041406e+05
    1.2449822389e-02    1.0390350000e+05
    1.2459997088e-02    1.0380652344e+05
    1.2469753623e-02    1.0371406250e+05
    1.2479539029e-02    1.0362161719e+05
    1.2489832006e-02    1.0352464844e+05
    1.2499707751e-02    1.0343199219e+05
    1.2509612367e-02    1.0333941406e+05
    1.2519557029e-02    1.0324681250e+05
    1.2529558502e-02    1.0315403125e+05
    1.2539583258e-02    1.0306136719e+05
    1.2549650855e-02    1.0296869531e+05
    1.2559752911e-02    1.0287614844e+05
    1.2569868937e-02    1.0278356250e+05
    1.2579594739e-02    1.0269503906e+05
    1.2589777820e-02    1.0260272656e+05
    1.2599554844e-02    1.0251427344e+05
    1.2609833851e-02    1.0242185156e+05
    1.2619663961e-02    1.0233352344e+05
    1.2629491277e-02    1.0224563281e+05
    1.2639933266e-02    1.0215291406e+05
    1.2649807148e-02    1.0206528906e+05
    1.2659813277e-02    1.0197691406e+05
    1.2669782154e-02    1.0188885156e+05
    1.2679792009e-02    1.0180128906e+05
    1.2689872645e-02    1.0171340625e+05
    1.2699970976e-02    1.0162540625e+05
    1.2709559873e-02    1.0154231250e+05
    1.2719715945e-02    1.0145471094e+05
    1.2729857117e-02    1.0136696094e+05
    1.2739540078e-02    1.0128408594e+05
    1.2749782763e-02    1.0119674219e+05
    1.2759525329e-02    1.0111352344e+05
    1.2769806199e-02    1.0102589844e+05
    1.2779623270e-02    1.0094305469e+05
    1.2789461762e-02    1.0085972656e+05
    1.2799891643e-02    1.0077177344e+05
    1.2809853069e-02    1.0068821094e+05
    1.2819757685e-02    1.0060428125e+05
    1.2829690240e-02    1.0052087500e+05
    1.2839641422e-02    1.0043750781e+05
    1.2849628925e-02    1.0035388281e+05
    1.2859642506e-02    1.0027031250e+05
    1.2869673781e-02    1.0018612500e+05
    1.2879777700e-02    1.0010199219e+05
    1.2889886275e-02    1.0001790625e+05
    1.2899923138e-02    9.9934125000e+04
    1.2909565121e-02    9.9854976562e+04
    1.2919678353e-02    9.9771523438e+04
    1.2929833494e-02    9.9689117188e+04
    1.2939509936e-02    9.9610781250e+04
    1.2949711643e-02    9.9529429688e+04
    1.2959944084e-02    9.9448375000e+04
    1.2969676405e-02    9.9372031250e+04
    1.2979949825e-02    9.9292398438e+04
    1.2989712879e-02    9.9217320312e+04
    1.2999997474e-02    9.9139226562e+04
    1.3009795919e-02    9.9064554688e+04
    1.3019625098e-02    9.8990695312e+04
    1.3029869646e-02    9.8912843750e+04
    1.3039551675e-02    9.8839289062e+04
    1.3049627654e-02    9.8762023438e+04
    1.3059504330e-02    9.8685710938e+04
    1.3069646433e-02    9.8606664062e+04
    1.3079969212e-02    9.8525773438e+04
    1.3089959510e-02    9.8447406250e+04
    1.3099630363e-02    9.8371789062e+04
    1.3109866530e-02    9.8292187500e+04
    1.3119742274e-02    9.8215851562e+04
    1.3129674830e-02    9.8139648438e+04
    1.3139628805e-02    9.8063960938e+04
    1.3149937615e-02    9.7986335938e+04
    1.3159801252e-02    9.7912773438e+04
    1.3169910759e-02    9.7837960938e+04
    1.3179849833e-02    9.7764804688e+04
    1.3189877383e-02    9.7691335938e+04
    1.3199891895e-02    9.7618367188e+04
    1.3209781609e-02    9.7546726562e+04
    1.3219909742e-02    9.7473710938e+04
    1.3229783624e-02    9.7402789062e+04
    1.3239925727e-02    9.7330367188e+04
    1.3249917887e-02    9.7259375000e+04
    1.3259931467e-02    9.7188429688e+04
    1.3269877061e-02    9.7118500000e+04
    1.3279952109e-02    9.7047492188e+04
    1.3289879076e-02    9.6977375000e+04
    1.3299959712e-02    9.6905835938e+04
    1.3309889473e-02    9.6834937500e+04
    1.3319970109e-02    9.6762539062e+04
    1.3329872862e-02    9.6691164062e+04
    1.3339882717e-02    9.6619000000e+04
    1.3349807821e-02    9.6547710938e+04
    1.3359805569e-02    9.6476460938e+04
    1.3369848952e-02    9.6405757812e+04
    1.3379918411e-02    9.6335960938e+04
    1.3389961794e-02    9.6267523438e+04
    1.3399939053e-02    9.6200570312e+04
    1.3409812935e-02    9.6135179688e+04
    1.3419795781e-02    9.6069773438e+04
    1.3429848477e-02    9.6004351562e+04
    1.3439977542e-02    9.5938445312e+04
    1.3449942693e-02    9.5873156250e+04
    1.3459973037e-02    9.5806710938e+04
    1.3469813392e-02    9.5740601562e+04
    1.3479931280e-02    9.5671835938e+04
    1.3489863835e-02    9.5603906250e+04
    1.3499830849e-02    9.5535593750e+04
    1.3509835117e-02    9.5467226562e+04
    1.3519867323e-02    9.5399226562e+04
    1.3529933058e-02    9.5331781250e+04
    1.3539795764e-02    9.5266710938e+04
    1.3549922965e-02    9.5200992188e+04
    1.3559830375e-02    9.5137710938e+04
    1.3569781557e-02    9.5074960938e+04
    1.3579959050e-02    9.5011382812e+04
    1.3589960523e-02    9.4949414062e+04
    1.3599947095e-02    9.4887648438e+04
    1.3609987684e-02    9.4825382812e+04
    1.3619785197e-02    9.4764179688e+04
    1.3629854657e-02    9.4700781250e+04
    1.3639944606e-02    9.4636601562e+04
    1.3649795204e-02    9.4573406250e+04
    1.3659924269e-02    9.4508039062e+04
    1.3669827953e-02    9.4444039062e+04
    1.3679992408e-02    9.4378656250e+04
    1.3689928688e-02    9.4315406250e+04
    1.3699905016e-02    9.4252882812e+04
    1.3709885068e-02    9.4191476562e+04
    1.3719878159e-02    9.4131101562e+04
    1.3729905710e-02    9.4071476562e+04
    1.3739938848e-02    9.4012585938e+04
    1.3749984093e-02    9.3954085938e+04
    1.3759819791e-02    9.3896906250e+04
    1.3769908808e-02    9.3837835938e+04
    1.3779997826e-02    9.3777906250e+04
    1.3789877295e-02    9.3718218750e+04
    1.3799774460e-02    9.3657500000e+04
    1.3809905387e-02    9.3594773438e+04
    1.3819822110e-02    9.3533335938e+04
    1.3829762116e-02    9.3472218750e+04
    1.3839937747e-02    9.3410648438e+04
    1.3849884272e-02    9.3351773438e+04
    1.3859863393e-02    9.3294101562e+04
    1.3869838789e-02    9.3237726562e+04
    1.3879817910e-02    9.3182312500e+04
    1.3889827766e-02    9.3127210938e+04
    1.3899841346e-02    9.3072007812e+04
    1.3909853995e-02    9.3016164062e+04
    1.3919891790e-02    9.2959164062e+04
    1.3929947279e-02    9.2900992188e+04
    1.3939990662e-02    9.2842085938e+04
    1.3949810527e-02    9.2784054688e+04
    1.3959903270e-02    9.2724468750e+04
    1.3969982974e-02    9.2665617188e+04
    1.3979816809e-02    9.2609250000e+04
    1.3989934698e-02    9.2552601562e+04
    1.3999802992e-02    9.2498726562e+04
    1.4009913430e-02    9.2444710938e+04
    1.4019802213e-02    9.2392570312e+04
    1.4029954560e-02    9.2339187500e+04
    1.4039859176e-02    9.2286742188e+04
    1.4049778692e-02    9.2233445312e+04
    1.4059958048e-02    9.2177695312e+04
    1.4069880359e-02    9.2122289062e+04
    1.4079819433e-02    9.2066085938e+04
    1.4089781791e-02    9.2009648438e+04
    1.4099990949e-02    9.1952414062e+04
    1.4109952375e-02    9.1897710938e+04
    1.4119930565e-02    9.1844273438e+04
    1.4129921794e-02    9.1792179688e+04
    1.4139912091e-02    9.1741335938e+04
    1.4149905182e-02    9.1691226562e+04
    1.4159915969e-02    9.1641085938e+04
    1.4169933274e-02    9.1590273438e+04
    1.4179958962e-02    9.1538312500e+04
    1.4189993963e-02    9.1485101562e+04
    1.4199779369e-02    9.1432343750e+04
    1.4209822752e-02    9.1377773438e+04
    1.4219883829e-02    9.1323351562e+04
    1.4229947701e-02    9.1269867188e+04
    1.4239761047e-02    9.1219023438e+04
    1.4249831438e-02    9.1168335938e+04
    1.4259918593e-02    9.1118898438e+04
    1.4269759879e-02    9.1071531250e+04
    1.4279851690e-02    9.1023132812e+04
    1.4289951883e-02    9.0974093750e+04
    1.4299808070e-02    9.0925218750e+04
    1.4309925959e-02    9.0873898438e+04
    1.4319797046e-02    9.0822906250e+04
    1.4329920523e-02    9.0770187500e+04
    1.4339799061e-02    9.0718992188e+04
    1.4349942096e-02    9.0667335938e+04
    1.4359837398e-02    9.0618257812e+04
    1.4369988814e-02    9.0569445312e+04
    1.4379884116e-02    9.0523085938e+04
    1.4389794320e-02    9.0477335938e+04
    1.4399968088e-02    9.0430320312e+04
    1.4409887604e-02    9.0383843750e+04
    1.4419808052e-02    9.0336312500e+04
    1.4429989271e-02    9.0286414062e+04
    1.4439927414e-02    9.0236976562e+04
    1.4449870214e-02    9.0187375000e+04
    1.4459810220e-02    9.0138281250e+04
    1.4469754882e-02    9.0090210938e+04
    1.4479963109e-02    9.0042257812e+04
    1.4489925466e-02    8.9996812500e+04
    1.4499888755e-02    8.9952335938e+04
    1.4509851113e-02    8.9908164062e+04
    1.4519819990e-02    8.9863523438e+04
    1.4529798180e-02    8.9817898438e+04
    1.4539779164e-02    8.9771250000e+04
    1.4549757354e-02    8.9723812500e+04
    1.4559992589e-02    8.9674781250e+04
    1.4569981024e-02    8.9627226562e+04
    1.4579980634e-02    8.9580617188e+04
    1.4589979313e-02    8.9535343750e+04
    1.4599979855e-02    8.9491335938e+04
    1.4609979466e-02    8.9448179688e+04
    1.4619986527e-02    8.9405289062e+04
    1.4629996382e-02    8.9362085938e+04
    1.4639745466e-02    8.9319210938e+04
    1.4649755321e-02    8.9274187500e+04
    1.4659769833e-02    8.9228382812e+04
    1.4669793658e-02    8.9182351562e+04
    1.4679822139e-02    8.9136750000e+04
    1.4689851552e-02    8.9092062500e+04
    1.4699880965e-02    8.9048500000e+04
    1.4709910378e-02    8.9006023438e+04
    1.4719938859e-02    8.8964281250e+04
    1.4729967341e-02    8.8922742188e+04
    1.4739994891e-02    8.8880773438e+04
    1.4749765396e-02    8.8839070312e+04
    1.4759792946e-02    8.8795460938e+04
    1.4769822359e-02    8.8751335938e+04
    1.4779851772e-02    8.8707242188e+04
    1.4789882116e-02    8.8663726562e+04
    1.4799914323e-02    8.8621210938e+04
    1.4809946530e-02    8.8579757812e+04
    1.4819979668e-02    8.8539117188e+04
    1.4829755761e-02    8.8499867188e+04
    1.4839788899e-02    8.8459468750e+04
    1.4849822037e-02    8.8418554688e+04
    1.4859855175e-02    8.8376882812e+04
    1.4869888313e-02    8.8334585938e+04
    1.4879921451e-02    8.8292085938e+04
    1.4889954589e-02    8.8250039062e+04
    1.4899988659e-02    8.8208898438e+04
    1.4909765683e-02    8.8169742188e+04
    1.4919801615e-02    8.8130273438e+04
    1.4929836616e-02    8.8091187500e+04
    1.4939873479e-02    8.8052085938e+04
    1.4949909411e-02    8.8012585938e+04
    1.4959947206e-02    8.7972437500e+04
    1.4969984069e-02    8.7931773438e+04
    1.4979765750e-02    8.7892085938e+04
    1.4989804476e-02    8.7851726562e+04
    1.4999844134e-02    8.7812007812e+04
    1.5009884723e-02    8.7773039062e+04
    1.5019925311e-02    8.7734789062e+04
    1.5029965900e-02    8.7696976562e+04
    1.5039750375e-02    8.7660085938e+04
    1.5049791895e-02    8.7621812500e+04
    1.5059835277e-02    8.7583023438e+04
    1.5069877729e-02    8.7543929688e+04
    1.5079921111e-02    8.7504929688e+04
    1.5089964494e-02    8.7466242188e+04
    1.5099750832e-02    8.7429023438e+04
    1.5109794214e-02    8.7391406250e+04
    1.5119838528e-02    8.7354375000e+04
    1.5129882842e-02    8.7317625000e+04
    1.5139926225e-02    8.7280757812e+04
    1.5149970539e-02    8.7243562500e+04
    1.5159756877e-02    8.7207031250e+04
    1.5169801190e-02    8.7169406250e+04
    1.5179848298e-02    8.7131859375e+04
    1.5189897269e-02    8.7094593750e+04
    1.5199950896e-02    8.7057828125e+04
    1.5209751204e-02    8.7022562500e+04
    1.5219811350e-02    8.6986835938e+04
    1.5229869634e-02    8.6951250000e+04
    1.5239926986e-02    8.6915523438e+04
    1.5249982476e-02    8.6879523438e+04
    1.5259780921e-02    8.6844218750e+04
    1.5269836411e-02    8.6807968750e+04
    1.5279890969e-02    8.6771992188e+04
    1.5289949253e-02    8.6736515625e+04
    1.5299751423e-02    8.6702406250e+04
    1.5309811570e-02    8.6667648438e+04
    1.5319871716e-02    8.6632953125e+04
    1.5329931863e-02    8.6598203125e+04
    1.5339992009e-02    8.6563390625e+04
    1.5349794179e-02    8.6529398438e+04
    1.5359856188e-02    8.6494476562e+04
    1.5369918197e-02    8.6459710938e+04
    1.5379979275e-02    8.6425265625e+04
    1.5389782377e-02    8.6392023438e+04
    1.5399843454e-02    8.6358148438e+04
    1.5409904532e-02    8.6324484375e+04
    1.5419966541e-02    8.6290992188e+04
    1.5429769643e-02    8.6258414062e+04
    1.5439831652e-02    8.6224882812e+04
    1.5449894592e-02    8.6191234375e+04
    1.5459957533e-02    8.6157632812e+04
    1.5469761565e-02    8.6125179688e+04
    1.5479823574e-02    8.6092273438e+04
    1.5489885584e-02    8.6059625000e+04
    1.5499947593e-02    8.6027078125e+04
    1.5509752557e-02    8.5995414062e+04
    1.5519815497e-02    8.5962953125e+04
    1.5529878438e-02    8.5930492188e+04
    1.5539941378e-02    8.5898039062e+04
    1.5549746342e-02    8.5866562500e+04
    1.5559809282e-02    8.5834484375e+04
    1.5569871292e-02    8.5802632812e+04
    1.5579934232e-02    8.5770921875e+04
    1.5589998104e-02    8.5739335938e+04
    1.5599803068e-02    8.5708726562e+04
    1.5609866939e-02    8.5677437500e+04
    1.5619929880e-02    8.5646132812e+04
    1.5629993752e-02    8.5614773438e+04
    1.5639798716e-02    8.5584335938e+04
    1.5649860725e-02    8.5553406250e+04
    1.5659924597e-02    8.5522703125e+04
    1.5669988468e-02    8.5492078125e+04
    1.5679793432e-02    8.5462328125e+04
    1.5689857304e-02    8.5431945312e+04
    1.5699921176e-02    8.5401656250e+04
    1.5709985048e-02    8.5371414062e+04
    1.5719790012e-02    8.5342007812e+04
    1.5729853883e-02    8.5311945312e+04
    1.5739917755e-02    8.5282070312e+04
    1.5749981627e-02    8.5252382812e+04
    1.5759786591e-02    8.5223562500e+04
    1.5769850463e-02    8.5194101562e+04
    1.5779914334e-02    8.5164773438e+04
    1.5789980069e-02    8.5135562500e+04
    1.5799785033e-02    8.5107132812e+04
    1.5809848905e-02    8.5078023438e+04
    1.5819912776e-02    8.5049070312e+04
    1.5829978511e-02    8.5020296875e+04
    1.5839783475e-02    8.4992390625e+04
    1.5849849209e-02    8.4963859375e+04
    1.5859913081e-02    8.4935445312e+04
    1.5869976953e-02    8.4907117188e+04
    1.5879783779e-02    8.4879562500e+04
    1.5889847651e-02    8.4851359375e+04
    1.5899911523e-02    8.4823328125e+04
    1.5909977257e-02    8.4795484375e+04
    1.5919784084e-02    8.4768421875e+04
    1.5929847956e-02    8.4740664062e+04
    1.5939911827e-02    8.4712992188e+04
    1.5949977562e-02    8.4685531250e+04
    1.5959784389e-02    8.4658921875e+04
    1.5969848260e-02    8.4631640625e+04
    1.5979913995e-02    8.4604382812e+04
    1.5989977866e-02    8.4577250000e+04
    1.5999784693e-02    8.4551000000e+04
    1.6009850428e-02    8.4524203125e+04
    1.6019914299e-02    8.4497476562e+04
    1.6029980034e-02    8.4470820312e+04
    1.6039786860e-02    8.4444992188e+04
    1.6049852595e-02    8.4418664062e+04
    1.6059916466e-02    8.4392453125e+04
    1.6069982201e-02    8.4366296875e+04
    1.6079790890e-02    8.4340914062e+04
    1.6089854762e-02    8.4315031250e+04
    1.6099920496e-02    8.4289289062e+04
    1.6109986231e-02    8.4263640625e+04
    1.6119793057e-02    8.4238687500e+04
    1.6129858792e-02    8.4213179688e+04
    1.6139926389e-02    8.4187828125e+04
    1.6149992123e-02    8.4162593750e+04
    1.6159798950e-02    8.4138046875e+04
    1.6169864684e-02    8.4112921875e+04
    1.6179932281e-02    8.4087937500e+04
    1.6189998016e-02    8.4063039062e+04
    1.6199806705e-02    8.4038843750e+04
    1.6209872440e-02    8.4014125000e+04
    1.6219940037e-02    8.3989539062e+04
    1.6229746863e-02    8.3965648438e+04
    1.6239814460e-02    8.3941203125e+04
    1.6249880195e-02    8.3916914062e+04
    1.6259947792e-02    8.3892781250e+04
    1.6269756481e-02    8.3869367188e+04
    1.6279824078e-02    8.3845429688e+04
    1.6289891675e-02    8.3821609375e+04
    1.6299959272e-02    8.3797937500e+04
    1.6309769824e-02    8.3774992188e+04
    1.6319837421e-02    8.3751523438e+04
    1.6329905018e-02    8.3728101562e+04
    1.6339972615e-02    8.3704789062e+04
    1.6349783167e-02    8.3682210938e+04
    1.6359850764e-02    8.3659117188e+04
    1.6369920224e-02    8.3636046875e+04
    1.6379987821e-02    8.3613062500e+04
    1.6389798373e-02    8.3590812500e+04
    1.6399867833e-02    8.3568093750e+04
    1.6409937292e-02    8.3545437500e+04
    1.6419747844e-02    8.3523437500e+04
    1.6429817304e-02    8.3501007812e+04
    1.6439884901e-02    8.3478734375e+04
    1.6449954361e-02    8.3456554688e+04
    1.6459764913e-02    8.3434976562e+04
    1.6469834372e-02    8.3412929688e+04
    1.6479903832e-02    8.3391062500e+04
    1.6489973292e-02    8.3369335938e+04
    1.6499785706e-02    8.3348210938e+04
    1.6509857029e-02    8.3326546875e+04
    1.6519926488e-02    8.3304992188e+04
    1.6529997811e-02    8.3283570312e+04
    1.6539810225e-02    8.3262796875e+04
    1.6549881548e-02    8.3241539062e+04
    1.6559951007e-02    8.3220367188e+04
    1.6569765285e-02    8.3199859375e+04
    1.6579836607e-02    8.3178921875e+04
    1.6589907929e-02    8.3158062500e+04
    1.6599979252e-02    8.3137320312e+04
    1.6609791666e-02    8.3117242188e+04
    1.6619862989e-02    8.3096710938e+04
    1.6629934311e-02    8.3076210938e+04
    1.6639748588e-02    8.3056335938e+04
    1.6649821773e-02    8.3036101562e+04
    1.6659893095e-02    8.3016000000e+04
    1.6669966280e-02    8.2995968750e+04
    1.6679782420e-02    8.2976500000e+04
    1.6689853743e-02    8.2956585938e+04
    1.6699926928e-02    8.2936773438e+04
    1.6709743068e-02    8.2917585938e+04
    1.6719814390e-02    8.2898015625e+04
    1.6729887575e-02    8.2878507812e+04
    1.6739962623e-02    8.2859093750e+04
    1.6749776900e-02    8.2840289062e+04
    1.6759851947e-02    8.2821101562e+04
    1.6769925132e-02    8.2801984375e+04
    1.6780000180e-02    8.2782929688e+04
    1.6789816320e-02    8.2764437500e+04
    1.6799889505e-02    8.2745570312e+04
    1.6809964553e-02    8.2726843750e+04
    1.6819780692e-02    8.2708703125e+04
    1.6829855740e-02    8.2690171875e+04
    1.6839930788e-02    8.2671695312e+04
    1.6849748790e-02    8.2653765625e+04
    1.6859823838e-02    8.2635453125e+04
    1.6869898885e-02    8.2617289062e+04
    1.6879973933e-02    8.2599257812e+04
    1.6889791936e-02    8.2581703125e+04
    1.6899866983e-02    8.2563710938e+04
    1.6909943894e-02    8.2545851562e+04
    1.6919760033e-02    8.2528609375e+04
    1.6929836944e-02    8.2510984375e+04
    1.6939913854e-02    8.2493398438e+04
    1.6949988902e-02    8.2475906250e+04
    1.6959808767e-02    8.2458984375e+04
    1.6969883814e-02    8.2441718750e+04
    1.6979960725e-02    8.2424539062e+04
    1.6989780590e-02    8.2407867188e+04
    1.6999857500e-02    8.2390859375e+04
    1.7009934410e-02    8.2373984375e+04
    1.7019754276e-02    8.2357632812e+04
    1.7029831186e-02    8.2340890625e+04
    1.7039908096e-02    8.2324203125e+04
    1.7049986869e-02    8.2307640625e+04
    1.7059804872e-02    8.2291609375e+04
    1.7069883645e-02    8.2275234375e+04
    1.7079960555e-02    8.2258929688e+04
    1.7089780420e-02    8.2243132812e+04
    1.7099859193e-02    8.2227015625e+04
    1.7109937966e-02    8.2210992188e+04
    1.7119757831e-02    8.2195445312e+04
    1.7129836604e-02    8.2179593750e+04
    1.7139915377e-02    8.2163882812e+04
    1.7149994150e-02    8.2148265625e+04
    1.7159814015e-02    8.2133101562e+04
    1.7169892788e-02    8.2117593750e+04
    1.7179971561e-02    8.2102203125e+04
    1.7189793289e-02    8.2087296875e+04
    1.7199872062e-02    8.2072085938e+04
    1.7209952697e-02    8.2056968750e+04
    1.7219772562e-02    8.2042335938e+04
    1.7229853198e-02    8.2027398438e+04
    1.7239931971e-02    8.2012515625e+04
    1.7249753699e-02    8.1998078125e+04
    1.7259834334e-02    8.1983367188e+04
    1.7269914970e-02    8.1968804688e+04
    1.7279993743e-02    8.1954328125e+04
    1.7289815471e-02    8.1940257812e+04
    1.7299896106e-02    8.1925875000e+04
    1.7309976742e-02    8.1911632812e+04
    1.7319800332e-02    8.1897851562e+04
    1.7329880968e-02    8.1883750000e+04
    1.7339961603e-02    8.1869718750e+04
    1.7349783331e-02    8.1856171875e+04
    1.7359865829e-02    8.1842382812e+04
    1.7369946465e-02    8.1828671875e+04
    1.7379770055e-02    8.1815343750e+04
    1.7389850691e-02    8.1801710938e+04
    1.7399933189e-02    8.1788218750e+04
    1.7409756780e-02    8.1775226562e+04
    1.7419837415e-02    8.1761929688e+04
    1.7429919913e-02    8.1748640625e+04
    1.7439743504e-02    8.1735812500e+04
    1.7449826002e-02    8.1722820312e+04
    1.7459908500e-02    8.1709890625e+04
    1.7469990999e-02    8.1696976562e+04
    1.7479814589e-02    8.1684476562e+04
    1.7489897087e-02    8.1671796875e+04
    1.7499979585e-02    8.1659226562e+04
    1.7509803176e-02    8.1647000000e+04
    1.7519885674e-02    8.1634453125e+04
    1.7529970035e-02    8.1622007812e+04
    1.7539793625e-02    8.1610046875e+04
    1.7549877986e-02    8.1597898438e+04
    1.7559960485e-02    8.1585781250e+04
    1.7569785938e-02    8.1574015625e+04
    1.7579868436e-02    8.1562039062e+04
    1.7589952797e-02    8.1550171875e+04
    1.7599778250e-02    8.1538687500e+04
    1.7609862611e-02    8.1527000000e+04
    1.7619945109e-02    8.1515414062e+04
    1.7629770562e-02    8.1504203125e+04
    1.7639854923e-02    8.1492773438e+04
    1.7649939284e-02    8.1481390625e+04
    1.7659764737e-02    8.1470382812e+04
    1.7669849098e-02    8.1459195312e+04
    1.7679933459e-02    8.1448093750e+04
    1.7689760774e-02    8.1437335938e+04
    1.7699845135e-02    8.1426367188e+04
    1.7709929496e-02    8.1415523438e+04
    1.7719754949e-02    8.1405023438e+04
    1.7729841173e-02    8.1394296875e+04
    1.7739925534e-02    8.1383656250e+04
    1.7749750987e-02    8.1373406250e+04
    1.7759837210e-02    8.1362984375e+04
    1.7769921571e-02    8.1352593750e+04
    1.7779748887e-02    8.1342523438e+04
    1.7789835110e-02    8.1332296875e+04
    1.7799919471e-02    8.1322203125e+04
    1.7809746787e-02    8.1312414062e+04
    1.7819833010e-02    8.1302382812e+04
    1.7829919234e-02    8.1292476562e+04
    1.7839744687e-02    8.1283007812e+04
    1.7849830911e-02    8.1273359375e+04
    1.7859917134e-02    8.1263679688e+04
    1.7869744450e-02    8.1254312500e+04
    1.7879830673e-02    8.1244851562e+04
    1.7889916897e-02    8.1235515625e+04
    1.7899744213e-02    8.1226476562e+04
    1.7909830436e-02    8.1217250000e+04
    1.7919918522e-02    8.1208132812e+04
    1.7929745838e-02    8.1199359375e+04
    1.7939832062e-02    8.1190398438e+04
    1.7949918285e-02    8.1181453125e+04
    1.7959747463e-02    8.1172851562e+04
    1.7969833687e-02    8.1164203125e+04
    1.7979919910e-02    8.1155609375e+04
    1.7989749089e-02    8.1147203125e+04
    1.7999835312e-02    8.1138648438e+04
    1.8009923398e-02    8.1130273438e+04
    1.8019750714e-02    8.1122226562e+04
    1.8029838800e-02    8.1114007812e+04
    1.8039925024e-02    8.1105812500e+04
    1.8049754202e-02    8.1097921875e+04
    1.8059842288e-02    8.1089945312e+04
    1.8069928512e-02    8.1082101562e+04
    1.8079757690e-02    8.1074500000e+04
    1.8089845777e-02    8.1066734375e+04
    1.8099933863e-02    8.1059085938e+04
    1.8109763041e-02    8.1051804688e+04
    1.8119849265e-02    8.1044398438e+04
    1.8129937351e-02    8.1037007812e+04
    1.8139766529e-02    8.1029859375e+04
    1.8149854615e-02    8.1022648438e+04
    1.8159942701e-02    8.1015546875e+04
    1.8169771880e-02    8.1008687500e+04
    1.8179859966e-02    8.1001703125e+04
    1.8189948052e-02    8.0994781250e+04
    1.8199777231e-02    8.0988132812e+04
    1.8209865317e-02    8.0981398438e+04
    1.8219953403e-02    8.0974765625e+04
    1.8229782581e-02    8.0968414062e+04
    1.8239870667e-02    8.0961968750e+04
    1.8249958754e-02    8.0955554688e+04
    1.8259789795e-02    8.0949367188e+04
    1.8269877881e-02    8.0943156250e+04
    1.8279965967e-02    8.0937031250e+04
    1.8289795145e-02    8.0931039062e+04
    1.8299885094e-02    8.0924898438e+04
    1.8309973180e-02    8.0918929688e+04
    1.8319802359e-02    8.0913312500e+04
    1.8329892308e-02    8.0907625000e+04
    1.8339980394e-02    8.0901921875e+04
    1.8349809572e-02    8.0896382812e+04
    1.8359899521e-02    8.0890851562e+04
    1.8369987607e-02    8.0885492188e+04
    1.8379818648e-02    8.0880335938e+04
    1.8389906734e-02    8.0875039062e+04
    1.8399994820e-02    8.0869820312e+04
    1.8409825861e-02    8.0864867188e+04
    1.8419913948e-02    8.0859875000e+04
    1.8429744989e-02    8.0855054688e+04
    1.8439833075e-02    8.0850179688e+04
    1.8449923024e-02    8.0845382812e+04
    1.8459752202e-02    8.0840789062e+04
    1.8469842151e-02    8.0836101562e+04
    1.8479930237e-02    8.0831484375e+04
    1.8489761278e-02    8.0827148438e+04
    1.8499849364e-02    8.0822882812e+04
    1.8509939313e-02    8.0818648438e+04
    1.8519770354e-02    8.0814468750e+04
    1.8529858440e-02    8.0810257812e+04
    1.8539948389e-02    8.0806218750e+04
    1.8549777567e-02    8.0802437500e+04
    1.8559867516e-02    8.0798617188e+04
    1.8569957465e-02    8.0794796875e+04
    1.8579786643e-02    8.0791085938e+04
    1.8589876592e-02    8.0787382812e+04
    1.8599964678e-02    8.0783867188e+04
    1.8609795719e-02    8.0780578125e+04
    1.8619885668e-02    8.0777218750e+04
    1.8629973754e-02    8.0773859375e+04
    1.8639804795e-02    8.0770656250e+04
    1.8649894744e-02    8.0767507812e+04
    1.8659982830e-02    8.0764507812e+04
    1.8669813871e-02    8.0761640625e+04
    1.8679903820e-02    8.0758695312e+04
    1.8689991906e-02    8.0755828125e+04
    1.8699822947e-02    8.0753179688e+04
    1.8709912896e-02    8.0750546875e+04
    1.8719742075e-02    8.0748007812e+04
    1.8729832023e-02    8.0745484375e+04
    1.8739921972e-02    8.0743109375e+04
    1.8749751151e-02    8.0740914062e+04
    1.8759841099e-02    8.0738703125e+04
    1.8769931048e-02    8.0736515625e+04
    1.8779760227e-02    8.0734453125e+04
    1.8789850175e-02    8.0732484375e+04
    1.8799940124e-02    8.0730671875e+04
    1.8809769303e-02    8.0728976562e+04
    1.8819859251e-02    8.0727234375e+04
    1.8829949200e-02    8.0725531250e+04
    1.8839778379e-02    8.0723984375e+04
    1.8849868327e-02    8.0722492188e+04
    1.8859958276e-02    8.0721062500e+04
    1.8869787455e-02    8.0719773438e+04
    1.8879877403e-02    8.0718593750e+04
    1.8889967352e-02    8.0717500000e+04
    1.8899796531e-02    8.0716429688e+04
    1.8909886479e-02    8.0715375000e+04
    1.8919974566e-02    8.0714484375e+04
    1.8929805607e-02    8.0713765625e+04
    1.8939895555e-02    8.0713046875e+04
    1.8949983642e-02    8.0712296875e+04
    1.8959814683e-02    8.0711679688e+04
    1.8969904631e-02    8.0711296875e+04
    1.8979992718e-02    8.0711085938e+04
    1.8989823759e-02    8.0710882812e+04
    1.8999913707e-02    8.0710617188e+04
    1.9009742886e-02    8.0710367188e+04
    1.9019832835e-02    8.0710242188e+04
    1.9029920921e-02    8.0710320312e+04
    1.9039751962e-02    8.0710500000e+04
    1.9049841911e-02    8.0710710938e+04
    1.9059929997e-02    8.0711007812e+04
    1.9069761038e-02    8.0711453125e+04
    1.9079849124e-02    8.0712031250e+04
    1.9089939073e-02    8.0712648438e+04
    1.9099770114e-02    8.0713257812e+04
    1.9109858200e-02    8.0713960938e+04
    1.9119948149e-02    8.0714781250e+04
    1.9129777327e-02    8.0715710938e+04
    1.9139867276e-02    8.0716796875e+04
    1.9149955362e-02    8.0717992188e+04
    1.9159786403e-02    8.0719234375e+04
    1.9169874489e-02    8.0720570312e+04
    1.9179964438e-02    8.0722000000e+04
    1.9189795479e-02    8.0723507812e+04
    1.9199883565e-02    8.0725148438e+04
    1.9209971651e-02    8.0726835938e+04
    1.9219802693e-02    8.0728570312e+04
    1.9229892641e-02    8.0730484375e+04
    1.9239980727e-02    8.0732492188e+04
    1.9249811769e-02    8.0734468750e+04
    1.9259899855e-02    8.0736593750e+04
    1.9269989803e-02    8.0738859375e+04
    1.9279818982e-02    8.0741148438e+04
    1.9289908931e-02    8.0743546875e+04
    1.9299998879e-02    8.0746023438e+04
    1.9309828058e-02    8.0748570312e+04
    1.9319918007e-02    8.0751296875e+04
    1.9329749048e-02    8.0754015625e+04
    1.9339837134e-02    8.0756867188e+04
    1.9349927083e-02    8.0759789062e+04
    1.9359758124e-02    8.0762750000e+04
    1.9369848073e-02    8.0765898438e+04
    1.9379938021e-02    8.0769132812e+04
    1.9389769062e-02    8.0772406250e+04
    1.9399860874e-02    8.0775867188e+04
    1.9409950823e-02    8.0779382812e+04
    1.9419781864e-02    8.0782843750e+04
    1.9429871812e-02    8.0786523438e+04
    1.9439963624e-02    8.0790382812e+04
[...]
    1.1513980478e-01    1.0123011719e+05
    1.1514969915e-01    1.0123010156e+05
    1.1515989155e-01    1.0123010156e+05
    1.1516978592e-01    1.0123009375e+05
    1.1517997831e-01    1.0123008594e+05
    1.1518987268e-01    1.0123008594e+05
    1.1519976705e-01    1.0123007031e+05
    1.1520995945e-01    1.0123006250e+05
    1.1521985382e-01    1.0123003906e+05
    1.1522974819e-01    1.0123003906e+05
    1.1523994058e-01    1.0123003125e+05
    1.1524983495e-01    1.0123002344e+05
    1.1525972933e-01    1.0123000781e+05
    1.1526992172e-01    1.0123000000e+05
    1.1527981609e-01    1.0122999219e+05
    1.1528971046e-01    1.0122997656e+05
    1.1529990286e-01    1.0122996875e+05
    1.1530979723e-01    1.0122996094e+05
    1.1531998962e-01    1.0122996094e+05
    1.1532988399e-01    1.0122994531e+05
    1.1533977091e-01    1.0122993750e+05
    1.1534996331e-01    1.0122992969e+05
    1.1535985768e-01    1.0122991406e+05
    1.1536975205e-01    1.0122991406e+05
    1.1537994444e-01    1.0122990625e+05
    1.1538983881e-01    1.0122989844e+05
    1.1539973319e-01    1.0122989844e+05
    1.1540992558e-01    1.0122988281e+05
    1.1541981995e-01    1.0122986719e+05
    1.1542971432e-01    1.0122985156e+05
    1.1543990672e-01    1.0122985156e+05
    1.1544980109e-01    1.0122983594e+05
    1.1545999348e-01    1.0122983594e+05
    1.1546988785e-01    1.0122982031e+05
    1.1547978222e-01    1.0122980469e+05
    1.1548997462e-01    1.0122978906e+05
    1.1549986899e-01    1.0122978906e+05
    1.1550976336e-01    1.0122978125e+05
    1.1551995575e-01    1.0122977344e+05
    1.1552985013e-01    1.0122977344e+05
    1.1553973705e-01    1.0122977344e+05
    1.1554993689e-01    1.0122977344e+05
    1.1555982381e-01    1.0122975781e+05
    1.1556971818e-01    1.0122975000e+05
    1.1557991058e-01    1.0122974219e+05
    1.1558980495e-01    1.0122972656e+05
    1.1559999734e-01    1.0122972656e+05
    1.1560989171e-01    1.0122971875e+05
    1.1561978608e-01    1.0122971094e+05
    1.1562997848e-01    1.0122969531e+05
    1.1563987285e-01    1.0122968750e+05
    1.1564976722e-01    1.0122967969e+05
    1.1565995961e-01    1.0122966406e+05
    1.1566985399e-01    1.0122965625e+05
    1.1567974836e-01    1.0122965625e+05
    1.1568994075e-01    1.0122964844e+05
    1.1569983512e-01    1.0122964844e+05
    1.1570972949e-01    1.0122963281e+05
    1.1571992189e-01    1.0122962500e+05
    1.1572981626e-01    1.0122961719e+05
    1.1573970318e-01    1.0122960156e+05
    1.1574990302e-01    1.0122960156e+05
    1.1575978994e-01    1.0122959375e+05
    1.1576998234e-01    1.0122958594e+05
    1.1577987671e-01    1.0122957031e+05
    1.1578977108e-01    1.0122956250e+05
    1.1579996347e-01    1.0122953906e+05
    1.1580985785e-01    1.0122953906e+05
    1.1581975222e-01    1.0122953125e+05
    1.1582994461e-01    1.0122952344e+05
    1.1583983898e-01    1.0122952344e+05
    1.1584973335e-01    1.0122950781e+05
    1.1585992575e-01    1.0122950000e+05
    1.1586982012e-01    1.0122949219e+05
    1.1587971449e-01    1.0122947656e+05
    1.1588990688e-01    1.0122947656e+05
    1.1589980125e-01    1.0122946875e+05
    1.1590999365e-01    1.0122946094e+05
    1.1591988802e-01    1.0122946094e+05
    1.1592978239e-01    1.0122944531e+05
    1.1593997478e-01    1.0122943750e+05
    1.1594986916e-01    1.0122942969e+05
    1.1595975608e-01    1.0122941406e+05
    1.1596995592e-01    1.0122941406e+05
    1.1597984284e-01    1.0122940625e+05
    1.1598973721e-01    1.0122939844e+05
    1.1599992961e-01    1.0122939844e+05
    1.1600982398e-01    1.0122938281e+05
    1.1601971835e-01    1.0122937500e+05
    1.1602991074e-01    1.0122936719e+05
    1.1603980511e-01    1.0122935156e+05
    1.1604999751e-01    1.0122934375e+05
    1.1605989188e-01    1.0122933594e+05
    1.1606978625e-01    1.0122933594e+05
    1.1607997864e-01    1.0122932031e+05
    1.1608987302e-01    1.0122931250e+05
    1.1609976739e-01    1.0122931250e+05
    1.1610995978e-01    1.0122930469e+05
    1.1611985415e-01    1.0122928906e+05
    1.1612974852e-01    1.0122928906e+05
    1.1613994092e-01    1.0122928125e+05
    1.1614983529e-01    1.0122927344e+05
    1.1615972221e-01    1.0122927344e+05
    1.1616992205e-01    1.0122925781e+05
    1.1617980897e-01    1.0122925000e+05
    1.1618970335e-01    1.0122924219e+05
    1.1619989574e-01    1.0122922656e+05
    1.1620979011e-01    1.0122922656e+05
    1.1621998250e-01    1.0122921875e+05
    1.1622987688e-01    1.0122921094e+05
    1.1623977125e-01    1.0122921094e+05
    1.1624996364e-01    1.0122919531e+05
    1.1625985801e-01    1.0122918750e+05
    1.1626975238e-01    1.0122917969e+05
    1.1627994478e-01    1.0122916406e+05
    1.1628983915e-01    1.0122916406e+05
    1.1629973352e-01    1.0122915625e+05
    1.1630992591e-01    1.0122914844e+05
    1.1631982028e-01    1.0122914844e+05
    1.1632971466e-01    1.0122914844e+05
    1.1633990705e-01    1.0122913281e+05
    1.1634980142e-01    1.0122912500e+05
    1.1635999382e-01    1.0122911719e+05
    1.1636988819e-01    1.0122910156e+05
    1.1637977511e-01    1.0122910156e+05
    1.1638997495e-01    1.0122909375e+05
    1.1639986187e-01    1.0122908594e+05
    1.1640975624e-01    1.0122908594e+05
    1.1641994864e-01    1.0122907031e+05
    1.1642984301e-01    1.0122906250e+05
    1.1643973738e-01    1.0122905469e+05
    1.1644992977e-01    1.0122903906e+05
    1.1645982414e-01    1.0122903906e+05
    1.1646971852e-01    1.0122903125e+05
    1.1647991091e-01    1.0122902344e+05
    1.1648980528e-01    1.0122902344e+05
    1.1649999768e-01    1.0122902344e+05
    1.1650989205e-01    1.0122900781e+05
    1.1651978642e-01    1.0122900000e+05
    1.1652997881e-01    1.0122899219e+05
    1.1653987318e-01    1.0122897656e+05
    1.1654976755e-01    1.0122897656e+05
    1.1655995995e-01    1.0122896875e+05
    1.1656985432e-01    1.0122896875e+05
    1.1657974124e-01    1.0122896094e+05
    1.1658994108e-01    1.0122896094e+05
    1.1659982800e-01    1.0122894531e+05
    1.1660972238e-01    1.0122893750e+05
    1.1661991477e-01    1.0122892969e+05
    1.1662980914e-01    1.0122891406e+05
    1.1663970351e-01    1.0122891406e+05
    1.1664989591e-01    1.0122891406e+05
    1.1665979028e-01    1.0122890625e+05
    1.1666998267e-01    1.0122889844e+05
    1.1667987704e-01    1.0122889844e+05
    1.1668977141e-01    1.0122888281e+05
    1.1669996381e-01    1.0122887500e+05
    1.1670985818e-01    1.0122886719e+05
    1.1671975255e-01    1.0122885156e+05
    1.1672994494e-01    1.0122884375e+05
    1.1673983932e-01    1.0122883594e+05
    1.1674973369e-01    1.0122883594e+05
    1.1675992608e-01    1.0122882031e+05
    1.1676982045e-01    1.0122881250e+05
    1.1677971482e-01    1.0122880469e+05
    1.1678990722e-01    1.0122878906e+05
    1.1679979414e-01    1.0122878906e+05
    1.1680999398e-01    1.0122878125e+05
    1.1681988090e-01    1.0122877344e+05
    1.1682977527e-01    1.0122877344e+05
    1.1683996767e-01    1.0122877344e+05
    1.1684986204e-01    1.0122875781e+05
    1.1685975641e-01    1.0122875000e+05
    1.1686994880e-01    1.0122874219e+05
    1.1687984318e-01    1.0122872656e+05
    1.1688973755e-01    1.0122872656e+05
    1.1689992994e-01    1.0122871875e+05
    1.1690982431e-01    1.0122871094e+05
    1.1691971868e-01    1.0122871094e+05
    1.1692991108e-01    1.0122869531e+05
    1.1693980545e-01    1.0122868750e+05
    1.1694999784e-01    1.0122867969e+05
    1.1695989221e-01    1.0122866406e+05
    1.1696978658e-01    1.0122866406e+05
    1.1697997898e-01    1.0122865625e+05
    1.1698987335e-01    1.0122864844e+05
    1.1699976772e-01    1.0122864844e+05
    1.1700996011e-01    1.0122862500e+05
    1.1701985449e-01    1.0122861719e+05
    1.1702974141e-01    1.0122860156e+05
    1.1703993380e-01    1.0122860156e+05
    1.1704982817e-01    1.0122859375e+05
    1.1705972254e-01    1.0122858594e+05
    1.1706991494e-01    1.0122858594e+05
    1.1707980931e-01    1.0122858594e+05
    1.1708970368e-01    1.0122857031e+05
    1.1709989607e-01    1.0122857031e+05
    1.1710979044e-01    1.0122856250e+05
    1.1711998284e-01    1.0122855469e+05
    1.1712987721e-01    1.0122853906e+05
    1.1713977158e-01    1.0122853906e+05
    1.1714996397e-01    1.0122853125e+05
    1.1715985835e-01    1.0122852344e+05
    1.1716975272e-01    1.0122852344e+05
    1.1717994511e-01    1.0122850781e+05
    1.1718983948e-01    1.0122850000e+05
    1.1719973385e-01    1.0122847656e+05
    1.1720992625e-01    1.0122847656e+05
    1.1721982062e-01    1.0122846875e+05
    1.1722970754e-01    1.0122846094e+05
    1.1723990738e-01    1.0122846094e+05
    1.1724979430e-01    1.0122844531e+05
    1.1725998670e-01    1.0122843750e+05
    1.1726988107e-01    1.0122842969e+05
    1.1727977544e-01    1.0122841406e+05
    1.1728996783e-01    1.0122841406e+05
    1.1729986221e-01    1.0122840625e+05
    1.1730975658e-01    1.0122839844e+05
    1.1731994897e-01    1.0122839844e+05
    1.1732984334e-01    1.0122838281e+05
    1.1733973771e-01    1.0122837500e+05
    1.1734993011e-01    1.0122836719e+05
    1.1735982448e-01    1.0122835156e+05
    1.1736971885e-01    1.0122835156e+05
    1.1737991124e-01    1.0122834375e+05
    1.1738980561e-01    1.0122833594e+05
    1.1739999801e-01    1.0122833594e+05
    1.1740989238e-01    1.0122833594e+05
    1.1741978675e-01    1.0122832031e+05
    1.1742997915e-01    1.0122831250e+05
    1.1743987352e-01    1.0122830469e+05
    1.1744976044e-01    1.0122828906e+05
    1.1745996028e-01    1.0122828906e+05
    1.1746984720e-01    1.0122828125e+05
    1.1747974157e-01    1.0122827344e+05
    1.1748993397e-01    1.0122827344e+05
    1.1749982834e-01    1.0122825781e+05
    1.1750972271e-01    1.0122825000e+05
    1.1751991510e-01    1.0122824219e+05
    1.1752980947e-01    1.0122822656e+05
    1.1753970385e-01    1.0122822656e+05
    1.1754989624e-01    1.0122821875e+05
    1.1755979061e-01    1.0122821094e+05
    1.1756998301e-01    1.0122821094e+05
    1.1757987738e-01    1.0122819531e+05
    1.1758977175e-01    1.0122818750e+05
    1.1759996414e-01    1.0122817969e+05
    1.1760985851e-01    1.0122816406e+05
    1.1761975288e-01    1.0122816406e+05
    1.1762994528e-01    1.0122815625e+05
    1.1763983965e-01    1.0122814844e+05
    1.1764972657e-01    1.0122814844e+05
    1.1765992641e-01    1.0122814844e+05
    1.1766981333e-01    1.0122813281e+05
    1.1767970771e-01    1.0122812500e+05
    1.1768990010e-01    1.0122811719e+05
    1.1769979447e-01    1.0122810156e+05
    1.1770998687e-01    1.0122810156e+05
    1.1771988124e-01    1.0122809375e+05
    1.1772977561e-01    1.0122808594e+05
    1.1773996800e-01    1.0122808594e+05
    1.1774986237e-01    1.0122807031e+05
    1.1775975674e-01    1.0122806250e+05
    1.1776994914e-01    1.0122805469e+05
    1.1777984351e-01    1.0122803906e+05
    1.1778973788e-01    1.0122803906e+05
    1.1779993027e-01    1.0122803125e+05
    1.1780982465e-01    1.0122802344e+05
    1.1781971902e-01    1.0122802344e+05
    1.1782991141e-01    1.0122800781e+05
    1.1783980578e-01    1.0122800000e+05
    1.1784999818e-01    1.0122799219e+05
    1.1785989255e-01    1.0122799219e+05
    1.1786977947e-01    1.0122797656e+05
    1.1787997931e-01    1.0122797656e+05
    1.1788986623e-01    1.0122796875e+05
    1.1789976060e-01    1.0122796094e+05
    1.1790995300e-01    1.0122796094e+05
    1.1791984737e-01    1.0122794531e+05
    1.1792974174e-01    1.0122793750e+05
    1.1793993413e-01    1.0122792969e+05
    1.1794982851e-01    1.0122791406e+05
    1.1795972288e-01    1.0122791406e+05
    1.1796991527e-01    1.0122790625e+05
    1.1797980964e-01    1.0122789844e+05
    1.1798970401e-01    1.0122789844e+05
    1.1799989641e-01    1.0122789844e+05
    1.1800979078e-01    1.0122788281e+05
    1.1801998317e-01    1.0122787500e+05
    1.1802987754e-01    1.0122786719e+05
    1.1803977191e-01    1.0122785156e+05
    1.1804996431e-01    1.0122785156e+05
    1.1805985868e-01    1.0122784375e+05
    1.1806975305e-01    1.0122783594e+05
    1.1807994545e-01    1.0122783594e+05
    1.1808983237e-01    1.0122782031e+05
    1.1809972674e-01    1.0122781250e+05
    1.1810991913e-01    1.0122780469e+05
    1.1811981350e-01    1.0122780469e+05
    1.1812970787e-01    1.0122778906e+05
    1.1813990027e-01    1.0122778906e+05
    1.1814979464e-01    1.0122778125e+05
    1.1815998703e-01    1.0122777344e+05
    1.1816988140e-01    1.0122777344e+05
    1.1817977577e-01    1.0122775781e+05
    1.1818996817e-01    1.0122775000e+05
    1.1819986254e-01    1.0122774219e+05
    1.1820975691e-01    1.0122772656e+05
    1.1821994931e-01    1.0122772656e+05
    1.1822984368e-01    1.0122771875e+05
    1.1823973805e-01    1.0122771875e+05
    1.1824993044e-01    1.0122771094e+05
    1.1825982481e-01    1.0122771094e+05
    1.1826971918e-01    1.0122769531e+05
    1.1827991158e-01    1.0122768750e+05
    1.1828980595e-01    1.0122767969e+05
    1.1829999834e-01    1.0122766406e+05
    1.1830989271e-01    1.0122766406e+05
    1.1831977963e-01    1.0122765625e+05
    1.1832997948e-01    1.0122764844e+05
    1.1833986640e-01    1.0122764844e+05
    1.1834976077e-01    1.0122763281e+05
    1.1835995317e-01    1.0122762500e+05
    1.1836984754e-01    1.0122761719e+05
    1.1837974191e-01    1.0122761719e+05
    1.1838993430e-01    1.0122760156e+05
    1.1839982867e-01    1.0122760156e+05
    1.1840972304e-01    1.0122759375e+05
    1.1841991544e-01    1.0122758594e+05
    1.1842980981e-01    1.0122758594e+05
    1.1843970418e-01    1.0122757031e+05
    1.1844989657e-01    1.0122756250e+05
    1.1845979095e-01    1.0122755469e+05
    1.1846998334e-01    1.0122753906e+05
    1.1847987771e-01    1.0122753906e+05
    1.1848977208e-01    1.0122753125e+05
    1.1849996448e-01    1.0122752344e+05
    1.1850985885e-01    1.0122752344e+05
    1.1851974577e-01    1.0122752344e+05
    1.1852994561e-01    1.0122750781e+05
    1.1853983253e-01    1.0122750000e+05
    1.1854972690e-01    1.0122749219e+05
    1.1855991930e-01    1.0122747656e+05
    1.1856981367e-01    1.0122747656e+05
    1.1857970804e-01    1.0122746875e+05
    1.1858990043e-01    1.0122746875e+05
    1.1859979481e-01    1.0122746094e+05
    1.1860998720e-01    1.0122746094e+05
    1.1861988157e-01    1.0122744531e+05
    1.1862977594e-01    1.0122743750e+05
    1.1863996834e-01    1.0122742969e+05
    1.1864986271e-01    1.0122741406e+05
    1.1865975708e-01    1.0122741406e+05
    1.1866994947e-01    1.0122740625e+05
    1.1867984384e-01    1.0122739844e+05
    1.1868973821e-01    1.0122739844e+05
    1.1869993061e-01    1.0122739844e+05
    1.1870982498e-01    1.0122738281e+05
    1.1871971935e-01    1.0122737500e+05
    1.1872991174e-01    1.0122736719e+05
    1.1873980612e-01    1.0122735156e+05
    1.1874999851e-01    1.0122735156e+05
    1.1875989288e-01    1.0122734375e+05
    1.1876977980e-01    1.0122733594e+05
    1.1877997965e-01    1.0122733594e+05
    1.1878986657e-01    1.0122732031e+05
    1.1879976094e-01    1.0122732031e+05
    1.1880995333e-01    1.0122731250e+05
    1.1881984770e-01    1.0122730469e+05
    1.1882974207e-01    1.0122728906e+05
    1.1883993447e-01    1.0122728906e+05
    1.1884982884e-01    1.0122728125e+05
    1.1885972321e-01    1.0122727344e+05
    1.1886991560e-01    1.0122727344e+05
    1.1887980998e-01    1.0122725781e+05
    1.1888970435e-01    1.0122725000e+05
    1.1889989674e-01    1.0122724219e+05
    1.1890979111e-01    1.0122722656e+05
    1.1891998351e-01    1.0122722656e+05
    1.1892987788e-01    1.0122721875e+05
    1.1893977225e-01    1.0122721094e+05
    1.1894996464e-01    1.0122721094e+05
    1.1895985901e-01    1.0122721094e+05
    1.1896975338e-01    1.0122719531e+05
    1.1897994578e-01    1.0122718750e+05
    1.1898984015e-01    1.0122717969e+05
    1.1899972707e-01    1.0122716406e+05
    1.1900992692e-01    1.0122716406e+05
    1.1901981384e-01    1.0122715625e+05
    1.1902970821e-01    1.0122714844e+05
    1.1903990060e-01    1.0122714844e+05
    1.1904979497e-01    1.0122714844e+05
    1.1905998737e-01    1.0122713281e+05
    1.1906988174e-01    1.0122712500e+05
    1.1907977611e-01    1.0122711719e+05
    1.1908996850e-01    1.0122711719e+05
    1.1909986287e-01    1.0122710156e+05
    1.1910975724e-01    1.0122710156e+05
    1.1911994964e-01    1.0122709375e+05
    1.1912984401e-01    1.0122708594e+05
    1.1913973838e-01    1.0122708594e+05
    1.1914993078e-01    1.0122707031e+05
    1.1915982515e-01    1.0122705469e+05
    1.1916971952e-01    1.0122703906e+05
    1.1917991191e-01    1.0122703906e+05
    1.1918980628e-01    1.0122703125e+05
    1.1919999868e-01    1.0122702344e+05
    1.1920989305e-01    1.0122702344e+05
    1.1921978742e-01    1.0122700781e+05
    1.1922997981e-01    1.0122700000e+05
    1.1923987418e-01    1.0122699219e+05
    1.1924976110e-01    1.0122699219e+05
    1.1925996095e-01    1.0122697656e+05
    1.1926984787e-01    1.0122697656e+05
    1.1927974224e-01    1.0122696875e+05
    1.1928993464e-01    1.0122696875e+05
    1.1929982901e-01    1.0122696094e+05
    1.1930972338e-01    1.0122696094e+05
    1.1931991577e-01    1.0122694531e+05
    1.1932981014e-01    1.0122694531e+05
    1.1933970451e-01    1.0122693750e+05
    1.1934989691e-01    1.0122692969e+05
    1.1935979128e-01    1.0122692969e+05
    1.1936998367e-01    1.0122691406e+05
    1.1937987804e-01    1.0122691406e+05
    1.1938977242e-01    1.0122690625e+05
    1.1939996481e-01    1.0122689844e+05
    1.1940985918e-01    1.0122689844e+05
    1.1941975355e-01    1.0122689844e+05
    1.1942994595e-01    1.0122688281e+05
    1.1943984032e-01    1.0122687500e+05
    1.1944973469e-01    1.0122685156e+05
    1.1945992708e-01    1.0122685156e+05
    1.1946982145e-01    1.0122684375e+05
    1.1947970837e-01    1.0122683594e+05
    1.1948990822e-01    1.0122683594e+05
    1.1949979514e-01    1.0122683594e+05
    1.1950999498e-01    1.0122682031e+05
    1.1951988190e-01    1.0122681250e+05
    1.1952977628e-01    1.0122680469e+05
    1.1953996867e-01    1.0122680469e+05
    1.1954986304e-01    1.0122678906e+05
    1.1955975741e-01    1.0122678906e+05
    1.1956994981e-01    1.0122678125e+05
    1.1957984418e-01    1.0122678125e+05
    1.1958973855e-01    1.0122677344e+05
    1.1959993094e-01    1.0122675781e+05
    1.1960982531e-01    1.0122675000e+05
    1.1961971968e-01    1.0122674219e+05
    1.1962991208e-01    1.0122672656e+05
    1.1963980645e-01    1.0122672656e+05
    1.1964999884e-01    1.0122671875e+05
    1.1965989321e-01    1.0122671094e+05
    1.1966978759e-01    1.0122671094e+05
    1.1967997998e-01    1.0122669531e+05
    1.1968987435e-01    1.0122669531e+05
    1.1969976872e-01    1.0122668750e+05
    1.1970996112e-01    1.0122667969e+05
    1.1971985549e-01    1.0122666406e+05
    1.1972974241e-01    1.0122666406e+05
    1.1973994225e-01    1.0122666406e+05
    1.1974982917e-01    1.0122665625e+05
    1.1975972354e-01    1.0122664844e+05
    1.1976991594e-01    1.0122664844e+05
    1.1977981031e-01    1.0122663281e+05
    1.1978970468e-01    1.0122662500e+05
    1.1979989707e-01    1.0122662500e+05
    1.1980979145e-01    1.0122661719e+05
    1.1981998384e-01    1.0122660156e+05
    1.1982987821e-01    1.0122660156e+05
    1.1983977258e-01    1.0122659375e+05
    1.1984996498e-01    1.0122658594e+05
    1.1985985935e-01    1.0122658594e+05
    1.1986975372e-01    1.0122657031e+05
    1.1987994611e-01    1.0122656250e+05
    1.1988984048e-01    1.0122655469e+05
    1.1989973485e-01    1.0122653906e+05
    1.1990992725e-01    1.0122653906e+05
    1.1991982162e-01    1.0122653125e+05
    1.1992971599e-01    1.0122652344e+05
    1.1993990839e-01    1.0122652344e+05
    1.1994980276e-01    1.0122650781e+05
    1.1995999515e-01    1.0122650000e+05
    1.1996988952e-01    1.0122650000e+05
    1.1997977644e-01    1.0122649219e+05
    1.1998997629e-01    1.0122647656e+05
    1.1999986321e-01    1.0122647656e+05
endcurve
