Curveplot
LS-DYNA keyword deck by LS-PrePost                          
Time
Pressure
Defined Connection
Pressure @ 9 #pts=12001
* Minval=     7.2802093750e+04 at time=         0.0122596174
* Maxval=     3.6734221875e+05 at time=         0.0042399708
    0.0000000000e+00    1.0120000000e+05
    9.9485332612e-06    1.0120000000e+05
    1.9897423044e-05    1.0120000000e+05
    2.9951565011e-05    1.0120000000e+05
    3.9980728616e-05    1.0120000000e+05
    4.9974012654e-05    1.0120000000e+05
    5.9942107328e-05    1.0120000000e+05
    6.9999761763e-05    1.0120000000e+05
    7.9961559095e-05    1.0120000000e+05
    8.9972141723e-05    1.0120000000e+05
    9.9981560197e-05    1.0120000000e+05
    1.0998940706e-04    1.0120000000e+05
    1.1998419359e-04    1.0120000000e+05
    1.2995323050e-04    1.0120000000e+05
    1.3996017515e-04    1.0120000000e+05
    1.4999906125e-04    1.0120000000e+05
    1.5998946037e-04    1.0120000000e+05
    1.6999771469e-04    1.0120000000e+05
    1.7994047084e-04    1.0120000000e+05
    1.8996509607e-04    1.0120000000e+05
    1.9998881908e-04    1.0120000000e+05
    2.0992395002e-04    1.0120000000e+05
    2.1992504480e-04    1.0120000000e+05
    2.2998896020e-04    1.0120000000e+05
    2.3994274670e-04    1.0120000000e+05
    2.4994841078e-04    1.0120000000e+05
    2.5991513394e-04    1.0120000000e+05
    2.6992458152e-04    1.0120000000e+05
    2.7997355210e-04    1.0120000000e+05
    2.8996740002e-04    1.0120000000e+05
    2.9999073013e-04    1.0120000000e+05
    3.0994569534e-04    1.0120000000e+05
    3.1992045115e-04    1.0120000000e+05
    3.2990923501e-04    1.0120000000e+05
    3.3999598236e-04    1.0120000000e+05
    3.4997868352e-04    1.0120000000e+05
    3.5995614599e-04    1.0120000000e+05
    3.6992397509e-04    1.0120000000e+05
    3.7997920299e-04    1.0120000000e+05
    3.8992188638e-04    1.0120000000e+05
    3.9995176485e-04    1.0120000000e+05
    4.0996674215e-04    1.0120000000e+05
    4.1996513028e-04    1.0120000000e+05
    4.2994352407e-04    1.0120000000e+05
    4.3990372797e-04    1.0120000000e+05
    4.4994760538e-04    1.0120000000e+05
    4.5997006237e-04    1.0120000000e+05
    4.6996766469e-04    1.0120000000e+05
    4.7994256602e-04    1.0120000000e+05
    4.8999983119e-04    1.0120000000e+05
    4.9992161803e-04    1.0120000000e+05
    5.0992099568e-04    1.0120000000e+05
    5.1989406347e-04    1.0120000000e+05
    5.2994879661e-04    1.0120000000e+05
    5.3997262148e-04    1.0120000000e+05
    5.4996390827e-04    1.0120000000e+05
    5.5991881527e-04    1.0120000000e+05
    5.6995544583e-04    1.0120000000e+05
    5.7995592942e-04    1.0120000000e+05
    5.8991851984e-04    1.0120000000e+05
    5.9996009804e-04    1.0120000000e+05
    6.0996110551e-04    1.0120000000e+05
    6.1992055271e-04    1.0120000000e+05
    6.2995956978e-04    1.0120000000e+05
    6.3995551318e-04    1.0120000000e+05
    6.4990657847e-04    1.0120000000e+05
    6.5993523458e-04    1.0120000000e+05
    6.6991476342e-04    1.0120000000e+05
    6.7997438600e-04    1.0120000000e+05
    6.8998552160e-04    1.0120000000e+05
    6.9994624937e-04    1.0120000000e+05
    7.0998381125e-04    1.0120000000e+05
    7.1996916085e-04    1.0120000000e+05
    7.2989746695e-04    1.0120000000e+05
    7.3990441160e-04    1.0120000000e+05
    7.4998824857e-04    1.0120000000e+05
    7.5988157187e-04    1.0120000000e+05
    7.6998496661e-04    1.0120000000e+05
    7.7989377314e-04    1.0120000000e+05
    7.8987726010e-04    1.0120000000e+05
    7.9993344843e-04    1.0120000000e+05
    8.0992997391e-04    1.0120000000e+05
    8.1986159785e-04    1.0120000000e+05
    8.2986772759e-04    1.0120000000e+05
    8.3994906163e-04    1.0120000000e+05
    8.4996316582e-04    1.0120000000e+05
    8.5990765365e-04    1.0120000000e+05
    8.6992606521e-04    1.0120000000e+05
    8.7986927247e-04    1.0120000000e+05
    8.8988884818e-04    1.0120000000e+05
    8.9998322073e-04    1.0120000000e+05
    9.0985273710e-04    1.0120000000e+05
    9.1994530521e-04    1.0120000000e+05
    9.2996051535e-04    1.0120000000e+05
    9.3989592278e-04    1.0120000000e+05
    9.4990356592e-04    1.0120000000e+05
    9.5998420147e-04    1.0120000000e+05
    9.6997723449e-04    1.0120000000e+05
    9.7988592461e-04    1.0120000000e+05
    9.8986946978e-04    1.0120000000e+05
    9.9992484320e-04    1.0120000000e+05
    1.0098917410e-03    1.0120000000e+05
    1.0199297685e-03    1.0120000000e+05
    1.0298761772e-03    1.0120000000e+05
    1.0398931336e-03    1.0120000000e+05
    1.0499813361e-03    1.0120000000e+05
    1.0599745438e-03    1.0120000000e+05
    1.0698699625e-03    1.0120000000e+05
    1.0798316216e-03    1.0120000000e+05
    1.0898627806e-03    1.0120000000e+05
    1.0999671649e-03    1.0120000000e+05
    1.1099696858e-03    1.0120000000e+05
    1.1198674329e-03    1.0120000000e+05
    1.1298329337e-03    1.0120000000e+05
    1.1398668867e-03    1.0120000000e+05
    1.1499702232e-03    1.0120000000e+05
    1.1599642457e-03    1.0120000000e+05
    1.1698462768e-03    1.0120000000e+05
    1.1799762724e-03    1.0120000000e+05
    1.1899931123e-03    1.0120000000e+05
    1.1998941191e-03    1.0120000000e+05
    1.2098611332e-03    1.0120000000e+05
    1.2198952027e-03    1.0120000000e+05
    1.2299969094e-03    1.0120000000e+05
    1.2399780098e-03    1.0120000000e+05
    1.2498318683e-03    1.0120000000e+05
    1.2599404436e-03    1.0120000000e+05
    1.2699295767e-03    1.0120000000e+05
    1.2799848337e-03    1.0120000000e+05
    1.2899119174e-03    1.0120000000e+05
    1.2999040773e-03    1.0120000000e+05
    1.3099620119e-03    1.0120000000e+05
    1.3198874658e-03    1.0120000000e+05
    1.3298776466e-03    1.0120000000e+05
    1.3399330201e-03    1.0120000000e+05
    1.3498517219e-03    1.0120000000e+05
    1.3598346850e-03    1.0120000000e+05
    1.3698824914e-03    1.0120000000e+05
    1.3799961889e-03    1.0120000000e+05
    1.3899679761e-03    1.0120000000e+05
    1.3997947099e-03    1.0120000000e+05
    1.4098947868e-03    1.0120000000e+05
    1.4198487625e-03    1.0120000000e+05
    1.4298666501e-03    1.0120000000e+05
    1.4399496140e-03    1.0120000000e+05
    1.4498812379e-03    1.0120000000e+05
    1.4598765410e-03    1.0120000000e+05
    1.4699363383e-03    1.0120000000e+05
    1.4798404882e-03    1.0120000000e+05
    1.4898075024e-03    1.0120000000e+05
    1.4998384286e-03    1.0120000000e+05
    1.5099340817e-03    1.0120000000e+05
    1.5198688488e-03    1.0120000000e+05
    1.5298661310e-03    1.0120000000e+05
    1.5399281401e-03    1.0120000000e+05
    1.5498235589e-03    1.0120000000e+05
    1.5597826568e-03    1.0120000000e+05
    1.5698038042e-03    1.0120000000e+05
    1.5798894456e-03    1.0120000000e+05
    1.5898041893e-03    1.0120000000e+05
    1.5997822629e-03    1.0120000000e+05
    1.6098242486e-03    1.0120000000e+05
    1.6199303791e-03    1.0120000000e+05
    1.6298582777e-03    1.0120000000e+05
    1.6398482258e-03    1.0120000000e+05
    1.6499016201e-03    1.0120000000e+05
    1.6597736394e-03    1.0120000000e+05
    1.6699557891e-03    1.0120000000e+05
    1.6799541190e-03    1.0120000000e+05
    1.6897631576e-03    1.0120000000e+05
    1.6998886131e-03    1.0120000000e+05
    1.7098234966e-03    1.0120000000e+05
    1.7198212445e-03    1.0120000000e+05
    1.7298831372e-03    1.0120000000e+05
    1.7397493357e-03    1.0120000000e+05
    1.7499401001e-03    1.0120000000e+05
    1.7599335406e-03    1.0120000000e+05
    1.7699910095e-03    1.0120000000e+05
    1.7798459157e-03    1.0120000000e+05
    1.7897628713e-03    1.0120000000e+05
    1.7997432733e-03    1.0120000000e+05
    1.8097875873e-03    1.0120000000e+05
    1.8198966281e-03    1.0120000000e+05
    1.8297954230e-03    1.0120000000e+05
    1.8397575477e-03    1.0120000000e+05
    1.8497833516e-03    1.0120000000e+05
    1.8598738825e-03    1.0120000000e+05
    1.8697472988e-03    1.0120000000e+05
    1.8799684476e-03    1.0120000000e+05
    1.8899705028e-03    1.0120000000e+05
    1.8997486914e-03    1.0120000000e+05
    1.9098792691e-03    1.0120000000e+05
    1.9197842339e-03    1.0120000000e+05
    1.9297528779e-03    1.0120000000e+05
    1.9397860160e-03    1.0120000000e+05
    1.9498848123e-03    1.0120000000e+05
    1.9597501960e-03    1.0120000000e+05
    1.9699807744e-03    1.0120000000e+05
    1.9799750298e-03    1.0120000000e+05
    1.9897213206e-03    1.0120000000e+05
    1.9998461939e-03    1.0120000000e+05
    2.0097286906e-03    1.0120000000e+05
    2.0199874416e-03    1.0120000000e+05
    2.0296876319e-03    1.0120000000e+05
    2.0397657063e-03    1.0120000000e+05
    2.0499110688e-03    1.0120000000e+05
    2.0598042756e-03    1.0120000000e+05
    2.0697626751e-03    1.0120000000e+05
    2.0797869656e-03    1.0120000000e+05
    2.0898783114e-03    1.0120000000e+05
    2.0997084212e-03    1.0120000000e+05
    2.1099345759e-03    1.0120000000e+05
    2.1198973991e-03    1.0120000000e+05
    2.1299272776e-03    1.0120000000e+05
    2.1396866068e-03    1.0120000000e+05
    2.1498505957e-03    1.0120000000e+05
    2.1597421728e-03    1.0120000000e+05
    2.1696998738e-03    1.0120000000e+05
    2.1797250956e-03    1.0120000000e+05
    2.1898152772e-03    1.0120000000e+05
    2.1999753080e-03    1.0120000000e+05
    2.2098552436e-03    1.0120000000e+05
    2.2198020015e-03    1.0120000000e+05
    2.2298169788e-03    1.0120000000e+05
    2.2399011068e-03    1.0120000000e+05
    2.2496914025e-03    1.0120000000e+05
    2.2599149961e-03    1.0120000000e+05
    2.2698421963e-03    1.0120000000e+05
    2.2798378486e-03    1.0120000000e+05
    2.2899038158e-03    1.0120000000e+05
    2.2996640764e-03    1.0120000000e+05
    2.3098704405e-03    1.0120000000e+05
    2.3197687697e-03    1.0120000000e+05
    2.3297325242e-03    1.0120000000e+05
    2.3397635669e-03    1.0120000000e+05
    2.3498735391e-03    1.0120000000e+05
    2.3596631363e-03    1.0120000000e+05
    2.3699179292e-03    1.0120000000e+05
    2.3798493203e-03    1.0120000000e+05
    2.3898521904e-03    1.0120000000e+05
    2.3999272380e-03    1.0120000000e+05
    2.4096691050e-03    1.0120000000e+05
    2.4198903702e-03    1.0120000000e+05
    2.4297749624e-03    1.0120000000e+05
    2.4397312663e-03    1.0120000000e+05
    2.4497611448e-03    1.0120000000e+05
    2.4598606396e-03    1.0120000000e+05
    2.4696153123e-03    1.0120000000e+05
    2.4798696395e-03    1.0120000000e+05
    2.4897709955e-03    1.0120000000e+05
    2.4997317232e-03    1.0120000000e+05
    2.5097390171e-03    1.0120000000e+05
    2.5197865907e-03    1.0120000000e+05
    2.5298676919e-03    1.0120000000e+05
    2.5399830192e-03    1.0120000000e+05
    2.5496787857e-03    1.0120000000e+05
    2.5598504581e-03    1.0120000000e+05
    2.5695865043e-03    1.0120000000e+05
    2.5797595736e-03    1.0120000000e+05
    2.5899761822e-03    1.0120000000e+05
    2.5997296907e-03    1.0120000000e+05
    2.6099444367e-03    1.0120000000e+05
    2.6197051629e-03    1.0120000000e+05
    2.6299178135e-03    1.0120000000e+05
    2.6396559551e-03    1.0120000000e+05
    2.6498497464e-03    1.0120000000e+05
    2.6596181560e-03    1.0120000000e+05
    2.6698117144e-03    1.0120000000e+05
    2.6799975894e-03    1.0120000000e+05
    2.6897578500e-03    1.0120000000e+05
    2.6999257971e-03    1.0120000000e+05
    2.7096671984e-03    1.0120000000e+05
    2.7198314201e-03    1.0120000000e+05
    2.7299984358e-03    1.0120000000e+05
    2.7397535741e-03    1.0120000000e+05
    2.7499182615e-03    1.0120000000e+05
    2.7596766595e-03    1.0120000000e+05
    2.7698124759e-03    1.0120000000e+05
    2.7799031232e-03    1.0120000000e+05
    2.7899974957e-03    1.0120000000e+05
    2.7996941935e-03    1.0120000000e+05
    2.8098789044e-03    1.0120000000e+05
    2.8196331114e-03    1.0120000000e+05
    2.8298718389e-03    1.0120000000e+05
    2.8396446723e-03    1.0120000000e+05
    2.8498955071e-03    1.0120000000e+05
    2.8597170021e-03    1.0120000000e+05
    2.8699862305e-03    1.0120000000e+05
    2.8798365965e-03    1.0120000000e+05
    2.8897151351e-03    1.0120000000e+05
    2.8996041510e-03    1.0120000000e+05
    2.9099211097e-03    1.0120000000e+05
    2.9198266566e-03    1.0120000000e+05
    2.9297438450e-03    1.0120000000e+05
    2.9396624304e-03    1.0120000000e+05
    2.9495784547e-03    1.0120000000e+05
    2.9599631671e-03    1.0120000000e+05
    2.9698726721e-03    1.0120000000e+05
    2.9797591269e-03    1.0120000000e+05
    2.9896521010e-03    1.0120000000e+05
    2.9999744147e-03    1.0120000000e+05
    3.0098163988e-03    1.0120000000e+05
    3.0196376611e-03    1.0120000000e+05
    3.0298705678e-03    1.0120000000e+05
    3.0396301299e-03    1.0120000000e+05
    3.0497885309e-03    1.0120000000e+05
    3.0598929152e-03    1.0120000000e+05
    3.0699353665e-03    1.0120000000e+05
    3.0799161177e-03    1.0120000000e+05
    3.0898337718e-03    1.0120000000e+05
    3.0996934511e-03    1.0120000000e+05
    3.1099189073e-03    1.0120000000e+05
    3.1196582131e-03    1.0120000000e+05
    3.1297593378e-03    1.0120000000e+05
    3.1397980638e-03    1.0120000000e+05
    3.1497753225e-03    1.0120000000e+05
    3.1596897170e-03    1.0120000000e+05
    3.1699552201e-03    1.0120000000e+05
    3.1797497068e-03    1.0120000000e+05
    3.1898894813e-03    1.0120000000e+05
    3.1999663915e-03    1.0120000000e+05
    3.2099809032e-03    1.0120000000e+05
    3.2199337147e-03    1.0120000000e+05
    3.2298252918e-03    1.0120000000e+05
    3.2396542374e-03    1.0120000000e+05
    3.2498151995e-03    1.0120000000e+05
    3.2599123660e-03    1.0120000000e+05
    3.2699457370e-03    1.0120000000e+05
    3.2799167093e-03    1.0120000000e+05
    3.2898250502e-03    1.0120000000e+05
    3.2996693626e-03    1.0120000000e+05
    3.3098286949e-03    1.0120000000e+05
    3.3199242316e-03    1.0120000000e+05
    3.3299552742e-03    1.0120000000e+05
    3.3399222884e-03    1.0120000000e+05
    3.3498257399e-03    1.0120000000e+05
    3.3596663270e-03    1.0120000000e+05
    3.3698028419e-03    1.0120000000e+05
    3.3798739314e-03    1.0120000000e+05
    3.3898798283e-03    1.0120000000e+05
    3.3998202998e-03    1.0120000000e+05
    3.4096955787e-03    1.0120000000e+05
    3.4198551439e-03    1.0120000000e+05
    3.4299462568e-03    1.0120000000e+05
    3.4399686847e-03    1.0120000000e+05
    3.4499231260e-03    1.0120000000e+05
    3.4598100465e-03    1.0120000000e+05
    3.4699672833e-03    1.0120000000e+05
    3.4797179978e-03    1.0120000000e+05
    3.4897357691e-03    1.0120000000e+05
    3.4996827599e-03    1.0120000000e+05
    3.5098877270e-03    1.0120000000e+05
    3.5196926910e-03    1.0120000000e+05
    3.5297509748e-03    1.0120000000e+05
    3.5397359170e-03    1.0120000000e+05
    3.5499657970e-03    1.0120000000e+05
    3.5598019604e-03    1.0120000000e+05
    3.5698791035e-03    1.0120000000e+05
    3.5798787139e-03    1.0120000000e+05
    3.5898012575e-03    1.0120000000e+05
    3.5999531392e-03    1.0120000000e+05
    3.6097201519e-03    1.0120000000e+05
    3.6197120789e-03    1.0120000000e+05
    3.6299224012e-03    1.0120000000e+05
    3.6397501826e-03    1.0120000000e+05
    3.6497914698e-03    1.0120000000e+05
    3.6597470753e-03    1.0120000000e+05
    3.6699061748e-03    1.0120000000e+05
    3.6799744703e-03    1.0120000000e+05
    3.6899528932e-03    1.0120000000e+05
    3.6998407450e-03    1.0120000000e+05
    3.7099167239e-03    1.0120000000e+05
    3.7198967766e-03    1.0120000000e+05
    3.7297809031e-03    1.0120000000e+05
    3.7398391869e-03    1.0120000000e+05
    3.7497959565e-03    1.0120000000e+05
    3.7599154748e-03    1.0120000000e+05
    3.7699274253e-03    1.0120000000e+05
    3.7798301782e-03    1.0120000000e+05
    3.7898807786e-03    1.0120000000e+05
    3.7998156622e-03    1.0120000000e+05
    3.8098851219e-03    1.0120000000e+05
    3.8198318798e-03    1.0120000000e+05
    3.8298985455e-03    1.0120000000e+05
    3.8398343604e-03    1.0120000000e+05
    3.8498751819e-03    1.0120000000e+05
    3.8597758394e-03    1.0120000000e+05
    3.8699957076e-03    1.0120000000e+05
    3.8798309397e-03    1.0120000000e+05
    3.8899602368e-03    1.0120000000e+05
    3.8999195676e-03    1.0120000000e+05
    3.9099217393e-03    1.0120000000e+05
    3.9199516177e-03    1.0120000000e+05
    3.9299926721e-03    1.0120000000e+05
    3.9398246445e-03    1.0120000000e+05
    3.9498377591e-03    1.0120000000e+05
    3.9599975571e-03    1.0120000000e+05
    3.9698891342e-03    1.0120000000e+05
    3.9798668586e-03    1.0120000000e+05
    3.9898836985e-03    1.0120000000e+05
    3.9998856373e-03    1.0120000000e+05
    4.0099709295e-03    1.0120000000e+05
    4.0198862553e-03    1.0120000000e+05
    4.0299654938e-03    1.0120000000e+05
    4.0399804711e-03    1.0120000000e+05
    4.0499502793e-03    1.0120000000e+05
    4.0599354543e-03    1.0120000000e+05
    4.0699252859e-03    1.0120000000e+05
    4.0799905546e-03    1.0120000000e+05
    4.0899850428e-03    1.0120000000e+05
    4.0999636985e-03    1.0120000000e+05
    4.1099484079e-03    1.0120000000e+05
    4.1199969128e-03    1.0120000000e+05
    4.1299550794e-03    1.0120000000e+05
    4.1399644688e-03    1.0120000000e+05
    4.1499221697e-03    1.0120000000e+05
    4.1598407552e-03    1.0120000000e+05
    4.1698846035e-03    1.0120000000e+05
    4.1798949242e-03    1.0120000000e+05
    4.1898926720e-03    1.0120000000e+05
    4.1999369860e-03    1.0120000000e+05
    4.2099659331e-03    1.0120000000e+05
    4.2198617011e-03    1.0120097656e+05
    4.2298971675e-03    3.5840865625e+05
    4.2399708182e-03    3.6734221875e+05
    4.2499830015e-03    3.6449796875e+05
    4.2598554865e-03    3.6172509375e+05
    4.2699966580e-03    3.5891253125e+05
    4.2798174545e-03    3.5622440625e+05
    4.2899190448e-03    3.5349337500e+05
    4.2998511344e-03    3.5084012500e+05
    4.3098768219e-03    3.4819787500e+05
    4.3199378997e-03    3.4557809375e+05
    4.3298783712e-03    3.4302225000e+05
    4.3398416601e-03    3.4049131250e+05
    4.3498817831e-03    3.3797446875e+05
    4.3599558994e-03    3.3547918750e+05
    4.3698921800e-03    3.3304853125e+05
    4.3798671104e-03    3.3063821875e+05
    4.3898811564e-03    3.2824715625e+05
    4.3999413028e-03    3.2587381250e+05
    4.4098342769e-03    3.2356915625e+05
    4.4199945405e-03    3.2123168750e+05
    4.4299615547e-03    3.1896596875e+05
    4.4398009777e-03    3.1675600000e+05
    4.4498429634e-03    3.1452750000e+05
    4.4599645771e-03    3.1230846875e+05
    4.4698812999e-03    3.1016037500e+05
    4.4798525050e-03    3.0802603125e+05
    4.4898604974e-03    3.0590890625e+05
    4.4998801313e-03    3.0381462500e+05
    4.5099789277e-03    3.0172881250e+05
    4.5198416337e-03    2.9971606250e+05
    4.5298109762e-03    2.9770509375e+05
    4.5399488881e-03    2.9568368750e+05
    4.5499685220e-03    2.9370856250e+05
    4.5599844307e-03    2.9175665625e+05
    4.5698145404e-03    2.8986296875e+05
    4.5799338259e-03    2.8793562500e+05
    4.5898030512e-03    2.8607834375e+05
    4.5999838039e-03    2.8418350000e+05
    4.6099307947e-03    2.8235434375e+05
    4.6199252829e-03    2.8053700000e+05
    4.6299635433e-03    2.7873328125e+05
    4.6397903934e-03    2.7698696875e+05
    4.6498975717e-03    2.7521196875e+05
    4.6597919427e-03    2.7349325000e+05
    4.6699494123e-03    2.7174800000e+05
    4.6799178235e-03    2.7005412500e+05
    4.6899016015e-03    2.6837568750e+05
    4.6999347396e-03    2.6670893750e+05
    4.7099841759e-03    2.6505762500e+05
    4.7198319808e-03    2.6345706250e+05
    4.7299438156e-03    2.6183254688e+05
    4.7398507595e-03    2.6025789062e+05
    4.7497753985e-03    2.5869750000e+05
    4.7599631362e-03    2.5711381250e+05
    4.7699436545e-03    2.5557870312e+05
    4.7799423337e-03    2.5405829688e+05
    4.7899722122e-03    2.5254917188e+05
    4.7997953370e-03    2.5108660938e+05
    4.8098559491e-03    2.4960467188e+05
    4.8199496232e-03    2.4813392188e+05
    4.8298356123e-03    2.4670843750e+05
    4.8399581574e-03    2.4526462500e+05
    4.8498781398e-03    2.4386542188e+05
    4.8598204739e-03    2.4247785938e+05
    4.8697702587e-03    2.4110356250e+05
    4.8799719661e-03    2.3971020312e+05
    4.8899641261e-03    2.3835932812e+05
    4.8999679275e-03    2.3702032812e+05
    4.9099833705e-03    2.3569404688e+05
    4.9197860062e-03    2.3440898438e+05
    4.9298400991e-03    2.3310456250e+05
    4.9398951232e-03    2.3181342188e+05
    4.9499701709e-03    2.3053379688e+05
    4.9598258920e-03    2.2929470312e+05
    4.9699237570e-03    2.2803812500e+05
    4.9797925167e-03    2.2682267188e+05
    4.9899136648e-03    2.2558904688e+05
    4.9998066388e-03    2.2439532812e+05
    5.0099394284e-03    2.2318493750e+05
    5.0198445097e-03    2.2201375000e+05
    5.0299945287e-03    2.2082557812e+05
    5.0399112515e-03    2.1967629688e+05
    5.0498321652e-03    2.1853779688e+05
    5.0599914975e-03    2.1738364062e+05
    5.0699147396e-03    2.1626757812e+05
    5.0798379816e-03    2.1516270312e+05
    5.0899982452e-03    2.1404279688e+05
    5.0999224186e-03    2.1295970312e+05
    5.1098470576e-03    2.1188704688e+05
    5.1197716966e-03    2.1082457812e+05
    5.1299328916e-03    2.0974743750e+05
    5.1398575306e-03    2.0870554688e+05
    5.1497821696e-03    2.0767367188e+05
    5.1599428989e-03    2.0662757812e+05
    5.1698670723e-03    2.0561592188e+05
    5.1797907799e-03    2.0461407812e+05
    5.1899505779e-03    2.0359837500e+05
    5.1998738199e-03    2.0261579688e+05
    5.2097961307e-03    2.0164237500e+05
    5.2199545316e-03    2.0065526562e+05
    5.2298763767e-03    1.9970032812e+05
    5.2397972904e-03    1.9875445312e+05
    5.2499538288e-03    1.9779539062e+05
    5.2598738112e-03    1.9686760938e+05
    5.2697928622e-03    1.9594857812e+05
    5.2799456753e-03    1.9501670312e+05
    5.2898628637e-03    1.9411489062e+05
    5.2997819148e-03    1.9322114062e+05
    5.3099310026e-03    1.9231504688e+05
    5.3198416717e-03    1.9143842188e+05
    5.3297644481e-03    1.9056887500e+05
    5.3399191238e-03    1.8968732812e+05
    5.3498242050e-03    1.8883560938e+05
    5.3599844687e-03    1.8797029688e+05
    5.3699230775e-03    1.8713150000e+05
    5.3798500448e-03    1.8630104688e+05
    5.3897812031e-03    1.8547767188e+05
    5.3999726661e-03    1.8464025000e+05
    5.4099266417e-03    1.8382976562e+05
    5.4198848084e-03    1.8302618750e+05
    5.4298588075e-03    1.8222857812e+05
    5.4398379289e-03    1.8143789062e+05
    5.4498193786e-03    1.8065420312e+05
    5.4598189890e-03    1.7987612500e+05
    5.4698293097e-03    1.7910395312e+05
    5.4798340425e-03    1.7833893750e+05
    5.4898508824e-03    1.7757979688e+05
    5.4998891428e-03    1.7682570312e+05
    5.5099288002e-03    1.7607820312e+05
    5.5199647322e-03    1.7533773438e+05
    5.5297757499e-03    1.7462031250e+05
    5.5398438126e-03    1.7389050000e+05
    5.5499104783e-03    1.7316721875e+05
    5.5599799380e-03    1.7245000000e+05
    5.5698216893e-03    1.7175487500e+05
    5.5799181573e-03    1.7104778125e+05
    5.5897752754e-03    1.7036320312e+05
    5.5998768657e-03    1.6966770312e+05
    5.6099900976e-03    1.6897764062e+05
    5.6198732927e-03    1.6830923438e+05
    5.6297639385e-03    1.6764609375e+05
    5.6398948655e-03    1.6697256250e+05
    5.6497920305e-03    1.6632007812e+05
    5.6599434465e-03    1.6565640625e+05
    5.6698615663e-03    1.6501334375e+05
    5.6797787547e-03    1.6437576562e+05
    5.6899418123e-03    1.6372795312e+05
    5.6998776272e-03    1.6310009375e+05
    5.7098227553e-03    1.6247703125e+05
    5.7197711430e-03    1.6185903125e+05
    5.7299621403e-03    1.6123118750e+05
    5.7399235666e-03    1.6062254688e+05
    5.7498943061e-03    1.6001835938e+05
    5.7598664425e-03    1.5941906250e+05
    5.7698381133e-03    1.5882460938e+05
    5.7798172347e-03    1.5823437500e+05
    5.7898112573e-03    1.5764795312e+05
    5.7998066768e-03    1.5706623438e+05
    5.8098062873e-03    1.5648921875e+05
    5.8198086917e-03    1.5591693750e+05
    5.8298264630e-03    1.5534856250e+05
    5.8398474939e-03    1.5478453125e+05
    5.8498680592e-03    1.5422490625e+05
    5.8598951437e-03    1.5366942188e+05
    5.8699320070e-03    1.5311809375e+05
    5.8799791150e-03    1.5257095312e+05
    5.8897780254e-03    1.5204182812e+05
    5.8998265304e-03    1.5150335938e+05
    5.9098824859e-03    1.5096834375e+05
    5.9199496172e-03    1.5043643750e+05
    5.9297690168e-03    1.4992135938e+05
    5.9398324229e-03    1.4939764062e+05
    5.9499107301e-03    1.4887787500e+05
    5.9599950910e-03    1.4836254688e+05
    5.9698424302e-03    1.4786368750e+05
    5.9799263254e-03    1.4735685938e+05
    5.9897741303e-03    1.4686548438e+05
    5.9998789802e-03    1.4636481250e+05
    6.0099884868e-03    1.4586751562e+05
    6.0198511928e-03    1.4538601562e+05
    6.0299579054e-03    1.4489673438e+05
    6.0398345813e-03    1.4442242188e+05
    6.0499594547e-03    1.4394004688e+05
    6.0598449782e-03    1.4347271875e+05
    6.0699707828e-03    1.4299764062e+05
    6.0798567720e-03    1.4253729688e+05
    6.0897562653e-03    1.4207975000e+05
    6.0998992994e-03    1.4161456250e+05
    6.1098043807e-03    1.4116371875e+05
    6.1199488118e-03    1.4070556250e+05
    6.1298627406e-03    1.4026134375e+05
    6.1397748068e-03    1.3982060938e+05
    6.1499378644e-03    1.3937209375e+05
    6.1598625034e-03    1.3893720312e+05
    6.1697820202e-03    1.3850554688e+05
    6.1799669638e-03    1.3806557812e+05
    6.1898906715e-03    1.3764029688e+05
    6.1998274177e-03    1.3721795312e+05
    6.2097678892e-03    1.3679878125e+05
    6.2199598178e-03    1.3637226562e+05
    6.2299082056e-03    1.3595868750e+05
    6.2398463488e-03    1.3554828125e+05
    6.2498059124e-03    1.3513987500e+05
    6.2597673386e-03    1.3473456250e+05
    6.2699834816e-03    1.3432226562e+05
    6.2799425796e-03    1.3392343750e+05
    6.2898998149e-03    1.3352764062e+05
    6.2998742796e-03    1.3313384375e+05
    6.3098510727e-03    1.3274270312e+05
    6.3198353164e-03    1.3235401562e+05
    6.3298195601e-03    1.3196814062e+05
    6.3398010097e-03    1.3158521875e+05
    6.3497810625e-03    1.3120525000e+05
    6.3597578555e-03    1.3082819531e+05
    6.3699851744e-03    1.3044450781e+05
    6.3799703494e-03    1.3007257031e+05
    6.3899629749e-03    1.2970296094e+05
    6.3999528065e-03    1.2933603906e+05
    6.4099398442e-03    1.2897185156e+05
    6.4199254848e-03    1.2861034375e+05
    6.4299101941e-03    1.2825141406e+05
    6.4398930408e-03    1.2789510156e+05
    6.4498772845e-03    1.2754127344e+05
    6.4598657191e-03    1.2718978906e+05
    6.4698611386e-03    1.2684064844e+05
    6.4798588865e-03    1.2649394531e+05
    6.4898552373e-03    1.2614975000e+05
    6.4998497255e-03    1.2580792969e+05
    6.5098432824e-03    1.2546837500e+05
    6.5198359080e-03    1.2513111719e+05
    6.5298285335e-03    1.2479628125e+05
    6.5398206934e-03    1.2446394531e+05
    6.5498137847e-03    1.2413403125e+05
    6.5598078072e-03    1.2380635156e+05
    6.5698008984e-03    1.2348078906e+05
    6.5797939897e-03    1.2315728906e+05
    6.5897866152e-03    1.2283605469e+05
    6.5997792408e-03    1.2251733594e+05
    6.6097718664e-03    1.2220119531e+05
    6.6197640263e-03    1.2188731250e+05
    6.6297561862e-03    1.2157510156e+05
    6.6399974748e-03    1.2125644531e+05
    6.6499891691e-03    1.2094724219e+05
    6.6599803977e-03    1.2064068750e+05
    6.6699711606e-03    1.2033777344e+05
    6.6799619235e-03    1.2003852344e+05
    6.6899522208e-03    1.1974155469e+05
    6.6999420524e-03    1.1944467969e+05
    6.7099318840e-03    1.1914647656e+05
    6.7199207842e-03    1.1884766406e+05
    6.7299096845e-03    1.1855112500e+05
    6.7398981191e-03    1.1826035156e+05
    6.7498865537e-03    1.1797733594e+05
    6.7598740570e-03    1.1770065625e+05
    6.7698615603e-03    1.1742535156e+05
    6.7798495293e-03    1.1714558594e+05
    6.7898379639e-03    1.1685871875e+05
    6.7998277955e-03    1.1656733594e+05
    6.8098190241e-03    1.1627750781e+05
    6.8198107183e-03    1.1599558594e+05
    6.8298010156e-03    1.1572582031e+05
    6.8397899158e-03    1.1546872656e+05
    6.8497778848e-03    1.1521958594e+05
    6.8597653881e-03    1.1496914844e+05
    6.8697514944e-03    1.1470858594e+05
    6.8799885921e-03    1.1442866406e+05
    6.8899802864e-03    1.1414818750e+05
    6.8999752402e-03    1.1386800000e+05
    6.9099701941e-03    1.1359374219e+05
    6.9199637510e-03    1.1332825781e+05
    6.9299563766e-03    1.1307277344e+05
    6.9399485365e-03    1.1282758594e+05
    6.9499406964e-03    1.1259135156e+05
    6.9599309936e-03    1.1236032031e+05
    6.9699240848e-03    1.1212861719e+05
    6.9799218327e-03    1.1189103906e+05
    6.9899191149e-03    1.1164590625e+05
    6.9999145344e-03    1.1139513281e+05
    7.0099099539e-03    1.1114212500e+05
    7.0199039765e-03    1.1088971875e+05
    7.0298993960e-03    1.1063931250e+05
    7.0398999378e-03    1.1039146875e+05
    7.0499004796e-03    1.1014683594e+05
    7.0599000901e-03    1.0990614844e+05
    7.0698992349e-03    1.0967016406e+05
    7.0798969828e-03    1.0943946875e+05
    7.0898970589e-03    1.0921380469e+05
    7.0999008603e-03    1.0899191406e+05
    7.1099037305e-03    1.0877182031e+05
    7.1199061349e-03    1.0855121875e+05
    7.1299076080e-03    1.0832881250e+05
    7.1399090812e-03    1.0810489844e+05
    7.1499147452e-03    1.0788080469e+05
    7.1599204093e-03    1.0765815625e+05
    7.1699256077e-03    1.0743783594e+05
    7.1799298748e-03    1.0721992969e+05
    7.1899336763e-03    1.0700403906e+05
    7.1999416687e-03    1.0678959375e+05
    7.2099491954e-03    1.0657630469e+05
    7.2199562564e-03    1.0636391406e+05
    7.2299623862e-03    1.0615233594e+05
    7.2399699129e-03    1.0594166406e+05
    7.2499797679e-03    1.0573221875e+05
    7.2599882260e-03    1.0552431250e+05
    7.2699966840e-03    1.0531794531e+05
    7.2797546163e-03    1.0511800781e+05
    7.2897649370e-03    1.0491402344e+05
    7.2997747920e-03    1.0471110156e+05
    7.3097841814e-03    1.0450938281e+05
    7.3197935708e-03    1.0430894531e+05
    7.3298038915e-03    1.0410987500e+05
    7.3398137465e-03    1.0391216406e+05
    7.3498236015e-03    1.0371575000e+05
    7.3598329909e-03    1.0352058594e+05
    7.3698428459e-03    1.0332668750e+05
    7.3798527010e-03    1.0313396875e+05
    7.3898620903e-03    1.0294243750e+05
    7.3998714797e-03    1.0275230469e+05
    7.4098813348e-03    1.0256367969e+05
    7.4198907241e-03    1.0237637500e+05
    7.4298996478e-03    1.0219019531e+05
    7.4399085715e-03    1.0200519531e+05
    7.4499179609e-03    1.0182143750e+05
    7.4599264190e-03    1.0163883594e+05
    7.4699348770e-03    1.0145737500e+05
    7.4799433351e-03    1.0127716406e+05
    7.4899513274e-03    1.0109815625e+05
    7.4999593198e-03    1.0092002344e+05
    7.5099673122e-03    1.0074247656e+05
    7.5199748389e-03    1.0056550000e+05
    7.5299823657e-03    1.0038903906e+05
    7.5399898924e-03    1.0021282031e+05
    7.5499969535e-03    1.0003637500e+05
    7.5597544201e-03    9.9863976562e+04
    7.5697619468e-03    9.9687179688e+04
    7.5797699392e-03    9.9511125000e+04
    7.5897783972e-03    9.9336562500e+04
    7.5997863896e-03    9.9164148438e+04
    7.6097967103e-03    9.8994476562e+04
    7.6198070310e-03    9.8828257812e+04
    7.6298196800e-03    9.8665945312e+04
    7.6398341917e-03    9.8507468750e+04
    7.6498510316e-03    9.8351773438e+04
    7.6598711312e-03    9.8196914062e+04
    7.6698916964e-03    9.8040601562e+04
    7.6799113303e-03    9.7881164062e+04
    7.6899304986e-03    9.7718289062e+04
    7.6999492012e-03    9.7553210938e+04
    7.7099683695e-03    9.7387929688e+04
    7.7199866064e-03    9.7224343750e+04
    7.7297552489e-03    9.7067507812e+04
    7.7397739515e-03    9.6909648438e+04
    7.7497931197e-03    9.6754460938e+04
    7.7598141506e-03    9.6601406250e+04
    7.7698351815e-03    9.6450085938e+04
    7.7798571438e-03    9.6300335938e+04
    7.7898800373e-03    9.6152273438e+04
    7.7999075875e-03    9.6005820312e+04
    7.8099411912e-03    9.5860531250e+04
    7.8199747950e-03    9.5715476562e+04
    7.8297620639e-03    9.5572757812e+04
    7.8398035839e-03    9.5423820312e+04
    7.8498506919e-03    9.5272148438e+04
    7.8599005938e-03    9.5119148438e+04
    7.8699504957e-03    9.4967304688e+04
    7.8797517344e-03    9.4822687500e+04
    7.8898072243e-03    9.4679492188e+04
    7.8998664394e-03    9.4541718750e+04
    7.9099275172e-03    9.4408007812e+04
    7.9199895263e-03    9.4275625000e+04
    7.9298093915e-03    9.4144593750e+04
    7.9398974776e-03    9.4005882812e+04
    7.9499911517e-03    9.3862812500e+04
    7.9598361626e-03    9.3721023438e+04
    7.9699354246e-03    9.3576125000e+04
    7.9797822982e-03    9.3437757812e+04
    7.9898815602e-03    9.3300250000e+04
    7.9999789596e-03    9.3167414062e+04
    8.0098239705e-03    9.3041687500e+04
    8.0199213699e-03    9.2914960938e+04
    8.0297701061e-03    9.2791414062e+04
    8.0398721620e-03    9.2662539062e+04
    8.0499742180e-03    9.2530148438e+04
    8.0598229542e-03    9.2397960938e+04
    8.0699231476e-03    9.2261101562e+04
    8.0797718838e-03    9.2129039062e+04
    8.0898730084e-03    9.1997492188e+04
    8.0999750644e-03    9.1871289062e+04
    8.1098228693e-03    9.1753117188e+04
    8.1199249253e-03    9.1634851562e+04
    8.1297745928e-03    9.1519195312e+04
    8.1398803741e-03    9.1396945312e+04
    8.1499861553e-03    9.1269648438e+04
    8.1598423421e-03    9.1141976562e+04
    8.1699499860e-03    9.1011039062e+04
    8.1798136234e-03    9.0886976562e+04
    8.1899361685e-03    9.0765898438e+04
    8.1998081878e-03    9.0653648438e+04
    8.2099363208e-03    9.0541835938e+04
    8.2198167220e-03    9.0432085938e+04
    8.2299597561e-03    9.0315289062e+04
    8.2398531958e-03    9.0196289062e+04
    8.2497494295e-03    9.0074085938e+04
    8.2599110901e-03    8.9949156250e+04
    8.2698222250e-03    8.9831539062e+04
    8.2799931988e-03    8.9717132812e+04
    8.2899080589e-03    8.9610960938e+04
    8.2998350263e-03    8.9506851562e+04
    8.3097722381e-03    8.9400843750e+04
    8.3199730143e-03    8.9287117188e+04
    8.3299176767e-03    8.9171375000e+04
    8.3398614079e-03    8.9053750000e+04
    8.3498135209e-03    8.8938398438e+04
    8.3597805351e-03    8.8828617188e+04
    8.3697522059e-03    8.8725148438e+04
    8.3799809217e-03    8.8622906250e+04
    8.3899507299e-03    8.8522476562e+04
    8.3999270573e-03    8.8417406250e+04
    8.4099164233e-03    8.8306851562e+04
    8.4199141711e-03    8.8193687500e+04
    8.4299109876e-03    8.8082523438e+04
    8.4399078041e-03    8.7977023438e+04
    8.4499092773e-03    8.7877773438e+04
    8.4599219263e-03    8.7782148438e+04
    8.4699438885e-03    8.7685414062e+04
    8.4799695760e-03    8.7583835938e+04
    8.4899943322e-03    8.7477070312e+04
    8.4997648373e-03    8.7371296875e+04
    8.5097989067e-03    8.7265484375e+04
    8.5198385641e-03    8.7165429688e+04
    8.5298903286e-03    8.7070804688e+04
    8.5399392992e-03    8.6978562500e+04
    8.5499929264e-03    8.6884320312e+04
    8.5597913712e-03    8.6787835938e+04
    8.5698543116e-03    8.6684632812e+04
    8.5799256340e-03    8.6580906250e+04
    8.5897464305e-03    8.6483468750e+04
    8.5998186842e-03    8.6389343750e+04
    8.6099002510e-03    8.6299648438e+04
    8.6199846119e-03    8.6210328125e+04
    8.6298212409e-03    8.6119781250e+04
    8.6399242282e-03    8.6022093750e+04
    8.6497683078e-03    8.5924734375e+04
    8.6598657072e-03    8.5826960938e+04
    8.6699724197e-03    8.5734304688e+04
    8.6798304692e-03    8.5648601562e+04
    8.6899530143e-03    8.5562265625e+04
    8.6998241022e-03    8.5476039062e+04
    8.7099494413e-03    8.5383515625e+04
    8.7198140100e-03    8.5290593750e+04
    8.7299449369e-03    8.5195992188e+04
    8.7398318574e-03    8.5107812500e+04
    8.7499804795e-03    8.5022000000e+04
    8.7598729879e-03    8.4940375000e+04
    8.7697580457e-03    8.4857398438e+04
    8.7799085304e-03    8.4768765625e+04
    8.7898066267e-03    8.4679781250e+04
    8.7999776006e-03    8.4588835938e+04
    8.8098887354e-03    8.4503687500e+04
    8.8198026642e-03    8.4422593750e+04
    8.8299699128e-03    8.4341414062e+04
    8.8398829103e-03    8.4261000000e+04
    8.8498117402e-03    8.4177523438e+04
    8.8597461581e-03    8.4092078125e+04
    8.8699404150e-03    8.4005148438e+04
    8.8798757643e-03    8.3923453125e+04
    8.8898083195e-03    8.3845085938e+04
    8.8997418061e-03    8.3768078125e+04
    8.9099584147e-03    8.3687554688e+04
    8.9199123904e-03    8.3606726562e+04
    8.9298635721e-03    8.3524875000e+04
    8.9398194104e-03    8.3444148438e+04
    8.9497789741e-03    8.3365937500e+04
    8.9599993080e-03    8.3288148438e+04
    8.9699709788e-03    8.3212992188e+04
    8.9799445122e-03    8.3136609375e+04
    8.9899217710e-03    8.3058640625e+04
    8.9999036863e-03    8.2980328125e+04
    9.0098911896e-03    8.2903140625e+04
    9.0198805556e-03    8.2828046875e+04
    9.0298745781e-03    8.2754695312e+04
    9.0398611501e-03    8.2681539062e+04
    9.0498551726e-03    8.2607132812e+04
    9.0598631650e-03    8.2531546875e+04
    9.0698748827e-03    8.2456156250e+04
    9.0798912570e-03    8.2382328125e+04
    9.0899085626e-03    8.2310343750e+04
    9.0999156237e-03    8.2239273438e+04
    9.1099264100e-03    8.2167796875e+04
    9.1199558228e-03    8.2095476562e+04
    9.1299861670e-03    8.2023234375e+04
    9.1397566721e-03    8.1953648438e+04
    9.1497953981e-03    8.1883242188e+04
    9.1598276049e-03    8.1813953125e+04
    9.1698532924e-03    8.1745000000e+04
    9.1798976064e-03    8.1675484375e+04
    9.1899503022e-03    8.1605539062e+04
    9.1997394338e-03    8.1537585938e+04
    9.2097911984e-03    8.1468828125e+04
    9.2198448256e-03    8.1401507812e+04
    9.2299040407e-03    8.1334593750e+04
    9.2399660498e-03    8.1267265625e+04
    9.2497728765e-03    8.1201601562e+04
    9.2598488554e-03    8.1134562500e+04
    9.2699248344e-03    8.1068234375e+04
    9.2799933627e-03    8.1002679688e+04
    9.2898095027e-03    8.0939226562e+04
    9.2999013141e-03    8.0874312500e+04
    9.3099931255e-03    8.0809445312e+04
    9.3198167160e-03    8.0746148438e+04
    9.3299122527e-03    8.0681500000e+04
    9.3397358432e-03    8.0619562500e+04
    9.3498285860e-03    8.0556578125e+04
    9.3599343672e-03    8.0493625000e+04
    9.3697831035e-03    8.0432414062e+04
    9.3798991293e-03    8.0369765625e+04
    9.3897506595e-03    8.0309070312e+04
    9.3998713419e-03    8.0247164062e+04
    9.4099817798e-03    8.0185781250e+04
    9.4198323786e-03    8.0126546875e+04
    9.4299614429e-03    8.0065843750e+04
    9.4398278743e-03    8.0006632812e+04
    9.4499662519e-03    7.9946312500e+04
    9.4598419964e-03    7.9888226562e+04
    9.4699813053e-03    7.9828898438e+04
    9.4798505306e-03    7.9771335938e+04
    9.4899823889e-03    7.9712507812e+04
    9.4998590648e-03    7.9655632812e+04
    9.5097506419e-03    7.9598898438e+04
    9.5199095085e-03    7.9540875000e+04
    9.5298038796e-03    7.9484945312e+04
    9.5399636775e-03    7.9427882812e+04
    9.5498543233e-03    7.9372468750e+04
    9.5597365871e-03    7.9317351562e+04
    9.5698982477e-03    7.9261148438e+04
    9.5798075199e-03    7.9206632812e+04
    9.5899868757e-03    7.9150843750e+04
    9.5998980105e-03    7.9096906250e+04
    9.6098054200e-03    7.9043328125e+04
    9.6199819818e-03    7.8988437500e+04
    9.6298931167e-03    7.8935164062e+04
    9.6398089081e-03    7.8882296875e+04
    9.6497340128e-03    7.8829726562e+04
    9.6599319950e-03    7.8775968750e+04
    9.6698636189e-03    7.8723968750e+04
    9.6797933802e-03    7.8672320312e+04
    9.6899820492e-03    7.8619601562e+04
    9.6999118105e-03    7.8568625000e+04
    9.7098536789e-03    7.8518062500e+04
    9.7197983414e-03    7.8467718750e+04
    9.7297420725e-03    7.8417484375e+04
    9.7399614751e-03    7.8366187500e+04
    9.7499182448e-03    7.8316656250e+04
    9.7598684952e-03    7.8267500000e+04
    9.7698168829e-03    7.8218609375e+04
    9.7797755152e-03    7.8169859375e+04
    9.7897425294e-03    7.8121203125e+04
    9.7999796271e-03    7.8071484375e+04
    9.8099466413e-03    7.8023421875e+04
    9.8199183121e-03    7.7975585938e+04
    9.8298955709e-03    7.7927945312e+04
    9.8398653790e-03    7.7880695312e+04
    9.8498417065e-03    7.7833796875e+04
    9.8598236218e-03    7.7787203125e+04
    9.8698111251e-03    7.7740914062e+04
    9.8798032850e-03    7.7694960938e+04
    9.8897973076e-03    7.7649281250e+04
    9.8997969180e-03    7.7603812500e+04
    9.9097955972e-03    7.7558562500e+04
    9.9197914824e-03    7.7513492188e+04
    9.9297882989e-03    7.7468632812e+04
    9.9397916347e-03    7.7424062500e+04
    9.9498005584e-03    7.7379750000e+04
    9.9598160014e-03    7.7335664062e+04
    9.9698361009e-03    7.7291820312e+04
    9.9798589945e-03    7.7248210938e+04
    9.9898781627e-03    7.7204945312e+04
    9.9998945370e-03    7.7162093750e+04
    1.0009909980e-02    7.7119617188e+04
    1.0019929148e-02    7.7077320312e+04
    1.0029963218e-02    7.7035070312e+04
    1.0039732791e-02    7.6994062500e+04
    1.0049775243e-02    7.6952179688e+04
    1.0059817694e-02    7.6910687500e+04
    1.0069858283e-02    7.6869531250e+04
    1.0079895146e-02    7.6828578125e+04
    1.0089927353e-02    7.6787828125e+04
    1.0099967942e-02    7.6747312500e+04
    1.0109751485e-02    7.6708148438e+04
    1.0119815357e-02    7.6668179688e+04
    1.0129879229e-02    7.6628460938e+04
    1.0139942169e-02    7.6588953125e+04
    1.0149731301e-02    7.6550750000e+04
    1.0159787722e-02    7.6511742188e+04
    1.0169844143e-02    7.6472992188e+04
    1.0179909877e-02    7.6434476562e+04
    1.0189987719e-02    7.6396171875e+04
    1.0199801065e-02    7.6359078125e+04
    1.0209886357e-02    7.6321156250e+04
    1.0219969787e-02    7.6283468750e+04
    1.0229783133e-02    7.6247101562e+04
    1.0239868425e-02    7.6210078125e+04
    1.0249954648e-02    7.6173296875e+04
    1.0259777308e-02    7.6137617188e+04
    1.0269882157e-02    7.6101015625e+04
    1.0279990733e-02    7.6064640625e+04
    1.0289821774e-02    7.6029625000e+04
    1.0299926624e-02    7.5994007812e+04
    1.0309765115e-02    7.5959570312e+04
    1.0319881141e-02    7.5924265625e+04
    1.0329727083e-02    7.5890000000e+04
    1.0339851491e-02    7.5854968750e+04
    1.0349984281e-02    7.5820226562e+04
    1.0359848849e-02    7.5786734375e+04
    1.0369985364e-02    7.5752578125e+04
    1.0379848070e-02    7.5719507812e+04
    1.0389989242e-02    7.5685671875e+04
    1.0399861261e-02    7.5652992188e+04
    1.0409732349e-02    7.5620617188e+04
    1.0419879109e-02    7.5587609375e+04
    1.0429759510e-02    7.5555632812e+04
    1.0439915583e-02    7.5522882812e+04
    1.0449797846e-02    7.5491218750e+04
    1.0459965095e-02    7.5458921875e+04
    1.0469862260e-02    7.5427734375e+04
    1.0479761288e-02    7.5396773438e+04
    1.0489935055e-02    7.5365156250e+04
    1.0499834083e-02    7.5334601562e+04
    1.0509731248e-02    7.5304257812e+04
    1.0519903153e-02    7.5273328125e+04
    1.0529799387e-02    7.5243515625e+04
    1.0539968498e-02    7.5213140625e+04
    1.0549862869e-02    7.5183765625e+04
    1.0559757240e-02    7.5154507812e+04
    1.0569927283e-02    7.5124593750e+04
    1.0579822585e-02    7.5095750000e+04
    1.0589992628e-02    7.5066406250e+04
    1.0599886999e-02    7.5038093750e+04
    1.0609782301e-02    7.5009906250e+04
    1.0619955137e-02    7.4981039062e+04
    1.0629854165e-02    7.4953156250e+04
    1.0639752261e-02    7.4925585938e+04
    1.0649924167e-02    7.4897539062e+04
    1.0659820400e-02    7.4870429688e+04
    1.0669990443e-02    7.4842726562e+04
    1.0679883882e-02    7.4815968750e+04
    1.0689777322e-02    7.4789445312e+04
    1.0699944571e-02    7.4762398438e+04
    1.0709838942e-02    7.4736242188e+04
    1.0719733313e-02    7.4710296875e+04
    1.0729904287e-02    7.4683867188e+04
    1.0739800520e-02    7.4658351562e+04
    1.0749970563e-02    7.4632304688e+04
    1.0759864934e-02    7.4607148438e+04
    1.0769757442e-02    7.4582218750e+04
    1.0779924691e-02    7.4556835938e+04
    1.0789816268e-02    7.4532335938e+04
    1.0799982585e-02    7.4507343750e+04
    1.0809874162e-02    7.4483195312e+04
    1.0819766670e-02    7.4459242188e+04
    1.0829933919e-02    7.4434835938e+04
    1.0839825496e-02    7.4411289062e+04
    1.0849990882e-02    7.4387281250e+04
    1.0859880596e-02    7.4364085938e+04
    1.0869769379e-02    7.4341093750e+04
    1.0879932903e-02    7.4317726562e+04
    1.0889822617e-02    7.4295234375e+04
    1.0899986140e-02    7.4272281250e+04
    1.0909874924e-02    7.4250031250e+04
    1.0919762775e-02    7.4227914062e+04
    1.0929924436e-02    7.4205460938e+04
    1.0939811356e-02    7.4183921875e+04
    1.0949971154e-02    7.4161992188e+04
    1.0959857143e-02    7.4140742188e+04
    1.0969743133e-02    7.4119562500e+04
    1.0979903862e-02    7.4098007812e+04
    1.0989788920e-02    7.4077320312e+04
    1.0999947786e-02    7.4056312500e+04
    1.1009831913e-02    7.4036023438e+04
    1.1019988917e-02    7.4015304688e+04
    1.1029872112e-02    7.3995312500e+04
    1.1039756238e-02    7.3975523438e+04
    1.1049916036e-02    7.3955390625e+04
    1.1059801094e-02    7.3935960938e+04
    1.1069960892e-02    7.3916148438e+04
    1.1079845019e-02    7.3897062500e+04
    1.1089729145e-02    7.3878171875e+04
    1.1099893600e-02    7.3858953125e+04
    1.1109785177e-02    7.3840460938e+04
    1.1119954288e-02    7.3821664062e+04
    1.1129850522e-02    7.3803546875e+04
    1.1139744893e-02    7.3785554688e+04
    1.1149914004e-02    7.3767187500e+04
    1.1159805581e-02    7.3749484375e+04
    1.1169971898e-02    7.3731562500e+04
    1.1179861613e-02    7.3714382812e+04
    1.1189752258e-02    7.3697390625e+04
    1.1199918576e-02    7.3680031250e+04
    1.1209812015e-02    7.3663226562e+04
    1.1219983920e-02    7.3646101562e+04
    1.1229883879e-02    7.3629648438e+04
    1.1239781976e-02    7.3613414062e+04
    1.1249954812e-02    7.3596921875e+04
    1.1259850115e-02    7.3581031250e+04
    1.1269745417e-02    7.3565304688e+04
    1.1279914528e-02    7.3549335938e+04
    1.1289807037e-02    7.3533992188e+04
    1.1299975216e-02    7.3518406250e+04
    1.1309866793e-02    7.3503390625e+04
    1.1319758371e-02    7.3488539062e+04
    1.1329924688e-02    7.3473460938e+04
    1.1339815333e-02    7.3458953125e+04
    1.1349980719e-02    7.3444203125e+04
    1.1359871365e-02    7.3430000000e+04
    1.1369762011e-02    7.3415968750e+04
    1.1379927397e-02    7.3401726562e+04
    1.1389817111e-02    7.3388031250e+04
    1.1399981566e-02    7.3374164062e+04
    1.1409869418e-02    7.3360875000e+04
    1.1419757269e-02    7.3347773438e+04
    1.1429918930e-02    7.3334453125e+04
    1.1439804919e-02    7.3321570312e+04
    1.1449965648e-02    7.3308437500e+04
    1.1459851637e-02    7.3295867188e+04
    1.1469736695e-02    7.3283554688e+04
    1.1479898356e-02    7.3271117188e+04
    1.1489785276e-02    7.3259164062e+04
    1.1499946006e-02    7.3247015625e+04
    1.1509832926e-02    7.3235328125e+04
    1.1519996449e-02    7.3223406250e+04
    1.1529888026e-02    7.3211945312e+04
    1.1539782397e-02    7.3200796875e+04
    1.1549952440e-02    7.3189687500e+04
    1.1559848674e-02    7.3178968750e+04
    1.1569744907e-02    7.3168101562e+04
    1.1579924263e-02    7.3156929688e+04
    1.1589838192e-02    7.3146468750e+04
    1.1599759571e-02    7.3136539062e+04
    1.1609961279e-02    7.3126507812e+04
    1.1619890109e-02    7.3116507812e+04
    1.1629821733e-02    7.3106289062e+04
    1.1639760807e-02    7.3096273438e+04
    1.1649983004e-02    7.3086539062e+04
    1.1659935117e-02    7.3077601562e+04
    1.1669888161e-02    7.3068875000e+04
    1.1679844931e-02    7.3060031250e+04
    1.1689833365e-02    7.3050968750e+04
    1.1699862778e-02    7.3041835938e+04
    1.1709931307e-02    7.3032914062e+04
    1.1719758622e-02    7.3024585938e+04
    1.1729905382e-02    7.3016367188e+04
    1.1739806272e-02    7.3008601562e+04
    1.1749743484e-02    7.3000945312e+04
    1.1759716086e-02    7.2993343750e+04
    1.1769722216e-02    7.2985773438e+04
    1.1779760942e-02    7.2978242188e+04
    1.1789824814e-02    7.2970757812e+04
    1.1799912900e-02    7.2963328125e+04
    1.1809731834e-02    7.2956273438e+04
    1.1819852516e-02    7.2949250000e+04
    1.1829986237e-02    7.2942484375e+04
    1.1839843355e-02    7.2936109375e+04
    1.1849711649e-02    7.2929906250e+04
    1.1859891005e-02    7.2923718750e+04
    1.1869807728e-02    7.2917859375e+04
    1.1879757047e-02    7.2912093750e+04
    1.1889741756e-02    7.2906382812e+04
    1.1899758130e-02    7.2900781250e+04
    1.1909803376e-02    7.2895390625e+04
    1.1919868179e-02    7.2890179688e+04
    1.1929947883e-02    7.2885093750e+04
    1.1939740740e-02    7.2880250000e+04
    1.1949841864e-02    7.2875390625e+04
    1.1959956028e-02    7.2870695312e+04
    1.1969788931e-02    7.2866273438e+04
    1.1979939416e-02    7.2861851562e+04
    1.1989810504e-02    7.2857695312e+04
    1.1999702081e-02    7.2853695312e+04
    1.2009910308e-02    7.2849734375e+04
    1.2019829825e-02    7.2846031250e+04
    1.2029756792e-02    7.2842453125e+04
    1.2039990164e-02    7.2838929688e+04
    1.2049931102e-02    7.2835703125e+04
    1.2059891596e-02    7.2832671875e+04
    1.2069895864e-02    7.2829773438e+04
    1.2079969049e-02    7.2826945312e+04
    1.2089840136e-02    7.2824234375e+04
    1.2099849060e-02    7.2821617188e+04
    1.2109708041e-02    7.2819234375e+04
    1.2119745836e-02    7.2817054688e+04
    1.2129973620e-02    7.2815046875e+04
    1.2139718048e-02    7.2813234375e+04
    1.2149976566e-02    7.2811390625e+04
    1.2159713544e-02    7.2809773438e+04
    1.2169961818e-02    7.2808328125e+04
    1.2179649435e-02    7.2807203125e+04
    1.2189842761e-02    7.2806148438e+04
    1.2199811637e-02    7.2805148438e+04
    1.2209915556e-02    7.2804195312e+04
    1.2219771743e-02    7.2803437500e+04
    1.2229751796e-02    7.2802859375e+04
    1.2239852920e-02    7.2802429688e+04
    1.2249679305e-02    7.2802156250e+04
    1.2259617448e-02    7.2802093750e+04
    1.2269666418e-02    7.2802320312e+04
    1.2279825285e-02    7.2802789062e+04
    1.2289680541e-02    7.2803375000e+04
    1.2299633585e-02    7.2804031250e+04
    1.2309685349e-02    7.2804734375e+04
    1.2319839559e-02    7.2805515625e+04
    1.2329666875e-02    7.2806359375e+04
    1.2339587323e-02    7.2807351562e+04
    1.2349599041e-02    7.2808554688e+04
    1.2359695509e-02    7.2809960938e+04
    1.2369871140e-02    7.2811562500e+04
    1.2379676104e-02    7.2813296875e+04
    1.2389998883e-02    7.2815375000e+04
    1.2399937958e-02    7.2817601562e+04
    1.2409931980e-02    7.2819968750e+04
    1.2419967912e-02    7.2822398438e+04
    1.2429579161e-02    7.2824750000e+04
    1.2439681217e-02    7.2827312500e+04
    1.2449822389e-02    7.2830054688e+04
    1.2459997088e-02    7.2833046875e+04
    1.2469753623e-02    7.2836164062e+04
    1.2479539029e-02    7.2839460938e+04
    1.2489832006e-02    7.2843046875e+04
    1.2499707751e-02    7.2846531250e+04
    1.2509612367e-02    7.2850109375e+04
    1.2519557029e-02    7.2853835938e+04
    1.2529558502e-02    7.2857781250e+04
    1.2539583258e-02    7.2862070312e+04
    1.2549650855e-02    7.2866679688e+04
    1.2559752911e-02    7.2871406250e+04
    1.2569868937e-02    7.2876156250e+04
    1.2579594739e-02    7.2880710938e+04
    1.2589777820e-02    7.2885625000e+04
    1.2599554844e-02    7.2890601562e+04
    1.2609833851e-02    7.2896132812e+04
    1.2619663961e-02    7.2901601562e+04
    1.2629491277e-02    7.2907132812e+04
    1.2639933266e-02    7.2912976562e+04
    1.2649807148e-02    7.2918632812e+04
    1.2659813277e-02    7.2924531250e+04
    1.2669782154e-02    7.2930789062e+04
    1.2679792009e-02    7.2937250000e+04
    1.2689872645e-02    7.2943812500e+04
    1.2699970976e-02    7.2950468750e+04
    1.2709559873e-02    7.2956828125e+04
    1.2719715945e-02    7.2963828125e+04
    1.2729857117e-02    7.2971156250e+04
    1.2739540078e-02    7.2978320312e+04
    1.2749782763e-02    7.2985867188e+04
    1.2759525329e-02    7.2993109375e+04
    1.2769806199e-02    7.3000953125e+04
    1.2779623270e-02    7.3008750000e+04
    1.2789461762e-02    7.3016726562e+04
    1.2799891643e-02    7.3025289062e+04
    1.2809853069e-02    7.3033531250e+04
    1.2819757685e-02    7.3041875000e+04
    1.2829690240e-02    7.3050562500e+04
    1.2839641422e-02    7.3059445312e+04
    1.2849628925e-02    7.3068398438e+04
    1.2859642506e-02    7.3077437500e+04
    1.2869673781e-02    7.3086671875e+04
    1.2879777700e-02    7.3096242188e+04
    1.2889886275e-02    7.3106000000e+04
    1.2899923138e-02    7.3115812500e+04
    1.2909565121e-02    7.3125289062e+04
    1.2919678353e-02    7.3135500000e+04
    1.2929833494e-02    7.3145960938e+04
    1.2939509936e-02    7.3155984375e+04
    1.2949711643e-02    7.3166726562e+04
    1.2959944084e-02    7.3177687500e+04
    1.2969676405e-02    7.3188250000e+04
    1.2979949825e-02    7.3199609375e+04
    1.2989712879e-02    7.3210429688e+04
    1.2999997474e-02    7.3222078125e+04
    1.3009795919e-02    7.3233390625e+04
    1.3019625098e-02    7.3244867188e+04
    1.3029869646e-02    7.3257046875e+04
    1.3039551675e-02    7.3268601562e+04
    1.3049627654e-02    7.3280867188e+04
    1.3059504330e-02    7.3293132812e+04
    1.3069646433e-02    7.3305906250e+04
    1.3079969212e-02    7.3319046875e+04
    1.3089959510e-02    7.3331914062e+04
    1.3099630363e-02    7.3344539062e+04
    1.3109866530e-02    7.3358070312e+04
    1.3119742274e-02    7.3371289062e+04
    1.3129674830e-02    7.3384726562e+04
    1.3139628805e-02    7.3398359375e+04
    1.3149937615e-02    7.3412656250e+04
    1.3159801252e-02    7.3426507812e+04
    1.3169910759e-02    7.3440851562e+04
    1.3179849833e-02    7.3455125000e+04
    1.3189877383e-02    7.3469695312e+04
    1.3199891895e-02    7.3484453125e+04
    1.3209781609e-02    7.3499210938e+04
    1.3219909742e-02    7.3514492188e+04
    1.3229783624e-02    7.3529554688e+04
    1.3239925727e-02    7.3545203125e+04
    1.3249917887e-02    7.3560820312e+04
    1.3259931467e-02    7.3576687500e+04
    1.3269877061e-02    7.3592468750e+04
    1.3279952109e-02    7.3608656250e+04
    1.3289879076e-02    7.3624757812e+04
    1.3299959712e-02    7.3641281250e+04
    1.3309889473e-02    7.3657781250e+04
    1.3319970109e-02    7.3674757812e+04
    1.3329872862e-02    7.3691585938e+04
    1.3339882717e-02    7.3708718750e+04
    1.3349807821e-02    7.3725843750e+04
    1.3359805569e-02    7.3743304688e+04
    1.3369848952e-02    7.3761070312e+04
    1.3379918411e-02    7.3779062500e+04
    1.3389961794e-02    7.3797156250e+04
    1.3399939053e-02    7.3815312500e+04
    1.3409812935e-02    7.3833492188e+04
    1.3419795781e-02    7.3852054688e+04
    1.3429848477e-02    7.3870921875e+04
    1.3439977542e-02    7.3890125000e+04
    1.3449942693e-02    7.3909226562e+04
    1.3459973037e-02    7.3928625000e+04
    1.3469813392e-02    7.3947859375e+04
    1.3479931280e-02    7.3967820312e+04
    1.3489863835e-02    7.3987578125e+04
    1.3499830849e-02    7.4007609375e+04
    1.3509835117e-02    7.4027890625e+04
    1.3519867323e-02    7.4048421875e+04
    1.3529933058e-02    7.4069234375e+04
    1.3539795764e-02    7.4089835938e+04
    1.3549922965e-02    7.4111218750e+04
    1.3559830375e-02    7.4132328125e+04
    1.3569781557e-02    7.4153703125e+04
    1.3579959050e-02    7.4175742188e+04
    1.3589960523e-02    7.4197570312e+04
    1.3599947095e-02    7.4219593750e+04
    1.3609987684e-02    7.4241953125e+04
    1.3619785197e-02    7.4264007812e+04
    1.3629854657e-02    7.4286859375e+04
    1.3639944606e-02    7.4309984375e+04
    1.3649795204e-02    7.4332750000e+04
    1.3659924269e-02    7.4356367188e+04
    1.3669827953e-02    7.4379640625e+04
    1.3679992408e-02    7.4403742188e+04
    1.3689928688e-02    7.4427531250e+04
    1.3699905016e-02    7.4451664062e+04
    1.3709885068e-02    7.4476023438e+04
    1.3719878159e-02    7.4500609375e+04
    1.3729905710e-02    7.4525492188e+04
    1.3739938848e-02    7.4550601562e+04
    1.3749984093e-02    7.4575968750e+04
    1.3759819791e-02    7.4601015625e+04
    1.3769908808e-02    7.4626945312e+04
    1.3779997826e-02    7.4653101562e+04
    1.3789877295e-02    7.4678929688e+04
    1.3799774460e-02    7.4705046875e+04
    1.3809905387e-02    7.4732031250e+04
    1.3819822110e-02    7.4758679688e+04
    1.3829762116e-02    7.4785640625e+04
    1.3839937747e-02    7.4813484375e+04
    1.3849884272e-02    7.4840906250e+04
    1.3859863393e-02    7.4868640625e+04
    1.3869838789e-02    7.4896578125e+04
    1.3879817910e-02    7.4924734375e+04
    1.3889827766e-02    7.4953203125e+04
    1.3899841346e-02    7.4981898438e+04
    1.3909853995e-02    7.5010804688e+04
    1.3919891790e-02    7.5040070312e+04
    1.3929947279e-02    7.5069726562e+04
    1.3939990662e-02    7.5099695312e+04
    1.3949810527e-02    7.5129296875e+04
    1.3959903270e-02    7.5160031250e+04
    1.3969982974e-02    7.5203093750e+04
    1.3979816809e-02    7.7376546875e+04
    1.3989934698e-02    1.0581846094e+05
    1.3999802992e-02    1.0560280469e+05
    1.4009913430e-02    1.0566659375e+05
    1.4019802213e-02    1.0564410156e+05
    1.4029954560e-02    1.0558427344e+05
    1.4039859176e-02    1.0552165625e+05
    1.4049778692e-02    1.0545750000e+05
    1.4059958048e-02    1.0539028906e+05
    1.4069880359e-02    1.0532446094e+05
    1.4079819433e-02    1.0525842969e+05
    1.4089781791e-02    1.0519221094e+05
    1.4099990949e-02    1.0512455469e+05
    1.4109952375e-02    1.0505871094e+05
    1.4119930565e-02    1.0499290625e+05
    1.4129921794e-02    1.0492721875e+05
    1.4139912091e-02    1.0486178906e+05
    1.4149905182e-02    1.0479658594e+05
    1.4159915969e-02    1.0473078125e+05
    1.4169933274e-02    1.0466638281e+05
    1.4179958962e-02    1.0460147656e+05
    1.4189993963e-02    1.0453612500e+05
    1.4199779369e-02    1.0447274219e+05
    1.4209822752e-02    1.0441018750e+05
    1.4219883829e-02    1.0434371875e+05
    1.4229947701e-02    1.0428006250e+05
    1.4239761047e-02    1.0421821875e+05
    1.4249831438e-02    1.0415461719e+05
    1.4259918593e-02    1.0408975781e+05
    1.4269759879e-02    1.0402830469e+05
    1.4279851690e-02    1.0396510156e+05
    1.4289951883e-02    1.0390190625e+05
    1.4299808070e-02    1.0384052344e+05
    1.4309925959e-02    1.0377772656e+05
    1.4319797046e-02    1.0371652344e+05
    1.4329920523e-02    1.0365392969e+05
    1.4339799061e-02    1.0359297656e+05
    1.4349942096e-02    1.0353060156e+05
    1.4359837398e-02    1.0347002344e+05
    1.4369988814e-02    1.0340821875e+05
    1.4379884116e-02    1.0334831250e+05
    1.4389794320e-02    1.0328859375e+05
    1.4399968088e-02    1.0322740625e+05
    1.4409887604e-02    1.0316778906e+05
    1.4419808052e-02    1.0310827344e+05
    1.4429989271e-02    1.0304736719e+05
    1.4439927414e-02    1.0298814844e+05
    1.4449870214e-02    1.0292916406e+05
    1.4459810220e-02    1.0287050000e+05
    1.4469754882e-02    1.0281208594e+05
    1.4479963109e-02    1.0275231250e+05
    1.4489925466e-02    1.0269412500e+05
    1.4499888755e-02    1.0263603906e+05
    1.4509851113e-02    1.0257815625e+05
    1.4519819990e-02    1.0252047656e+05
    1.4529798180e-02    1.0246302344e+05
    1.4539779164e-02    1.0240572656e+05
    1.4549757354e-02    1.0234843750e+05
    1.4559992589e-02    1.0229012500e+05
    1.4569981024e-02    1.0223397656e+05
    1.4579980634e-02    1.0217646875e+05
    1.4589979313e-02    1.0212002344e+05
    1.4599979855e-02    1.0206460156e+05
    1.4609979466e-02    1.0200862500e+05
    1.4619986527e-02    1.0195158594e+05
    1.4629996382e-02    1.0189653906e+05
    1.4639745466e-02    1.0184324219e+05
    1.4649755321e-02    1.0178713281e+05
    1.4659769833e-02    1.0173168750e+05
    1.4669793658e-02    1.0167769531e+05
    1.4679822139e-02    1.0162218750e+05
    1.4689851552e-02    1.0156783594e+05
    1.4699880965e-02    1.0151340625e+05
    1.4709910378e-02    1.0145915625e+05
    1.4719938859e-02    1.0140511719e+05
    1.4729967341e-02    1.0135127344e+05
    1.4739994891e-02    1.0129758594e+05
    1.4749765396e-02    1.0124550000e+05
    1.4759792946e-02    1.0119221094e+05
    1.4769822359e-02    1.0113910156e+05
    1.4779851772e-02    1.0108614844e+05
    1.4789882116e-02    1.0103341406e+05
    1.4799914323e-02    1.0098094531e+05
    1.4809946530e-02    1.0092869531e+05
    1.4819979668e-02    1.0087667969e+05
    1.4829755761e-02    1.0082619531e+05
    1.4839788899e-02    1.0077452344e+05
    1.4849822037e-02    1.0072300000e+05
    1.4859855175e-02    1.0067159375e+05
    1.4869888313e-02    1.0062028906e+05
    1.4879921451e-02    1.0056910156e+05
    1.4889954589e-02    1.0051805469e+05
    1.4899988659e-02    1.0046706250e+05
    1.4909765683e-02    1.0041761719e+05
    1.4919801615e-02    1.0036753125e+05
    1.4929836616e-02    1.0031741406e+05
    1.4939873479e-02    1.0026691406e+05
    1.4949909411e-02    1.0021775000e+05
    1.4959947206e-02    1.0016839844e+05
    1.4969984069e-02    1.0011858594e+05
    1.4979765750e-02    1.0007044531e+05
    1.4989804476e-02    1.0002235156e+05
    1.4999844134e-02    9.9973242188e+04
    1.5009884723e-02    9.9923648438e+04
    1.5019925311e-02    9.9875367188e+04
    1.5029965900e-02    9.9827898438e+04
    1.5039750375e-02    9.9780148438e+04
    1.5049791895e-02    9.9732039062e+04
    1.5059835277e-02    9.9685250000e+04
    1.5069877729e-02    9.9637351562e+04
    1.5079921111e-02    9.9589320312e+04
    1.5089964494e-02    9.9541976562e+04
    1.5099750832e-02    9.9495789062e+04
    1.5109794214e-02    9.9448523438e+04
    1.5119838528e-02    9.9401335938e+04
    1.5129882842e-02    9.9355148438e+04
    1.5139926225e-02    9.9308492188e+04
    1.5149970539e-02    9.9262476562e+04
    1.5159756877e-02    9.9217273438e+04
    1.5169801190e-02    9.9171226562e+04
    1.5179848298e-02    9.9125242188e+04
    1.5189897269e-02    9.9079601562e+04
    1.5199950896e-02    9.9034132812e+04
    1.5209751204e-02    9.8989960938e+04
    1.5219811350e-02    9.8944664062e+04
    1.5229869634e-02    9.8899468750e+04
    1.5239926986e-02    9.8854398438e+04
    1.5249982476e-02    9.8809531250e+04
    1.5259780921e-02    9.8766023438e+04
    1.5269836411e-02    9.8721539062e+04
    1.5279890969e-02    9.8677218750e+04
    1.5289949253e-02    9.8633000000e+04
    1.5299751423e-02    9.8590062500e+04
    1.5309811570e-02    9.8546132812e+04
    1.5319871716e-02    9.8502289062e+04
    1.5329931863e-02    9.8458539062e+04
    1.5339992009e-02    9.8415125000e+04
    1.5349794179e-02    9.8372968750e+04
    1.5359856188e-02    9.8329250000e+04
    1.5369918197e-02    9.8286062500e+04
    1.5379979275e-02    9.8244039062e+04
    1.5389782377e-02    9.8201968750e+04
    1.5399843454e-02    9.8158476562e+04
    1.5409904532e-02    9.8116375000e+04
    1.5419966541e-02    9.8074437500e+04
    1.5429769643e-02    9.8032570312e+04
    1.5439831652e-02    9.7990179688e+04
    1.5449894592e-02    9.7948617188e+04
    1.5459957533e-02    9.7906460938e+04
    1.5469761565e-02    9.7865164062e+04
    1.5479823574e-02    9.7823601562e+04
    1.5489885584e-02    9.7782210938e+04
    1.5499947593e-02    9.7740460938e+04
    1.5509752557e-02    9.7700125000e+04
    1.5519815497e-02    9.7659093750e+04
    1.5529878438e-02    9.7617789062e+04
    1.5539941378e-02    9.7576843750e+04
    1.5549746342e-02    9.7536937500e+04
    1.5559809282e-02    9.7496125000e+04
    1.5569871292e-02    9.7455476562e+04
    1.5579934232e-02    9.7414929688e+04
    1.5589998104e-02    9.7374406250e+04
    1.5599803068e-02    9.7334898438e+04
    1.5609866939e-02    9.7294257812e+04
    1.5619929880e-02    9.7253789062e+04
    1.5629993752e-02    9.7213789062e+04
    1.5639798716e-02    9.7175476562e+04
    1.5649860725e-02    9.7136632812e+04
    1.5659924597e-02    9.7097687500e+04
    1.5669988468e-02    9.7057914062e+04
    1.5679793432e-02    9.7018085938e+04
    1.5689857304e-02    9.6976539062e+04
    1.5699921176e-02    9.6935492188e+04
    1.5709985048e-02    9.6896101562e+04
    1.5719790012e-02    9.6859898438e+04
    1.5729853883e-02    9.6824531250e+04
    1.5739917755e-02    9.6789187500e+04
    1.5749981627e-02    9.6751351562e+04
    1.5759786591e-02    9.6712062500e+04
    1.5769850463e-02    9.6670406250e+04
    1.5779914334e-02    9.6626718750e+04
    1.5789980069e-02    9.6583617188e+04
    1.5799785033e-02    9.6545539062e+04
    1.5809848905e-02    9.6509062500e+04
    1.5819912776e-02    9.6474101562e+04
    1.5829978511e-02    9.6441023438e+04
    1.5839783475e-02    9.6409101562e+04
    1.5849849209e-02    9.6374070312e+04
    1.5859913081e-02    9.6337554688e+04
    1.5869976953e-02    9.6299250000e+04
    1.5879783779e-02    9.6260054688e+04
    1.5889847651e-02    9.6218351562e+04
    1.5899911523e-02    9.6177406250e+04
    1.5909977257e-02    9.6137460938e+04
    1.5919784084e-02    9.6099585938e+04
    1.5929847956e-02    9.6062125000e+04
    1.5939911827e-02    9.6025648438e+04
    1.5949977562e-02    9.5989773438e+04
    1.5959784389e-02    9.5955335938e+04
    1.5969848260e-02    9.5919804688e+04
    1.5979913995e-02    9.5884101562e+04
    1.5989977866e-02    9.5847781250e+04
    1.5999784693e-02    9.5812093750e+04
    1.6009850428e-02    9.5775312500e+04
    1.6019914299e-02    9.5738726562e+04
    1.6029980034e-02    9.5702460938e+04
    1.6039786860e-02    9.5667351562e+04
    1.6049852595e-02    9.5631437500e+04
    1.6059916466e-02    9.5595476562e+04
    1.6069982201e-02    9.5559500000e+04
    1.6079790890e-02    9.5524414062e+04
    1.6089854762e-02    9.5488351562e+04
    1.6099920496e-02    9.5452289062e+04
    1.6109986231e-02    9.5416375000e+04
    1.6119793057e-02    9.5381648438e+04
    1.6129858792e-02    9.5345812500e+04
    1.6139926389e-02    9.5309554688e+04
    1.6149992123e-02    9.5274062500e+04
    1.6159798950e-02    9.5240023438e+04
    1.6169864684e-02    9.5203851562e+04
    1.6179932281e-02    9.5168226562e+04
    1.6189998016e-02    9.5133929688e+04
    1.6199806705e-02    9.5099460938e+04
    1.6209872440e-02    9.5063781250e+04
    1.6219940037e-02    9.5029367188e+04
    1.6229746863e-02    9.4996164062e+04
    1.6239814460e-02    9.4961226562e+04
    1.6249880195e-02    9.4926945312e+04
    1.6259947792e-02    9.4893562500e+04
    1.6269756481e-02    9.4861125000e+04
    1.6279824078e-02    9.4827695312e+04
    1.6289891675e-02    9.4795570312e+04
    1.6299959272e-02    9.4762937500e+04
    1.6309769824e-02    9.4730937500e+04
    1.6319837421e-02    9.4697750000e+04
    1.6329905018e-02    9.4663437500e+04
    1.6339972615e-02    9.4628304688e+04
    1.6349783167e-02    9.4593437500e+04
    1.6359850764e-02    9.4557476562e+04
    1.6369920224e-02    9.4522289062e+04
    1.6379987821e-02    9.4488375000e+04
    1.6389798373e-02    9.4457062500e+04
    1.6399867833e-02    9.4426210938e+04
    1.6409937292e-02    9.4395929688e+04
    1.6419747844e-02    9.4365835938e+04
    1.6429817304e-02    9.4333617188e+04
    1.6439884901e-02    9.4299851562e+04
    1.6449954361e-02    9.4265148438e+04
    1.6459764913e-02    9.4231210938e+04
    1.6469834372e-02    9.4196875000e+04
    1.6479903832e-02    9.4163335938e+04
    1.6489973292e-02    9.4130664062e+04
    1.6499785706e-02    9.4099718750e+04
    1.6509857029e-02    9.4068523438e+04
    1.6519926488e-02    9.4037085938e+04
    1.6529997811e-02    9.4005476562e+04
    1.6539810225e-02    9.3974960938e+04
    1.6549881548e-02    9.3942429688e+04
    1.6559951007e-02    9.3908226562e+04
    1.6569765285e-02    9.3875851562e+04
    1.6579836607e-02    9.3843273438e+04
    1.6589907929e-02    9.3810257812e+04
    1.6599979252e-02    9.3778914062e+04
    1.6609791666e-02    9.3749835938e+04
    1.6619862989e-02    9.3719210938e+04
    1.6629934311e-02    9.3687085938e+04
    1.6639748588e-02    9.3655414062e+04
    1.6649821773e-02    9.3622281250e+04
    1.6659893095e-02    9.3589210938e+04
    1.6669966280e-02    9.3557289062e+04
    1.6679782420e-02    9.3527492188e+04
    1.6689853743e-02    9.3496976562e+04
    1.6699926928e-02    9.3466679688e+04
    1.6709743068e-02    9.3435968750e+04
    1.6719814390e-02    9.3403789062e+04
    1.6729887575e-02    9.3371257812e+04
    1.6739962623e-02    9.3339226562e+04
    1.6749776900e-02    9.3308914062e+04
    1.6759851947e-02    9.3278507812e+04
    1.6769925132e-02    9.3248289062e+04
    1.6780000180e-02    9.3217554688e+04
    1.6789816320e-02    9.3186804688e+04
    1.6799889505e-02    9.3154773438e+04
    1.6809964553e-02    9.3122992188e+04
    1.6819780692e-02    9.3092851562e+04
    1.6829855740e-02    9.3062695312e+04
    1.6839930788e-02    9.3032710938e+04
    1.6849748790e-02    9.3002992188e+04
    1.6859823838e-02    9.2971789062e+04
    1.6869898885e-02    9.2940242188e+04
    1.6879973933e-02    9.2909179688e+04
    1.6889791936e-02    9.2879781250e+04
    1.6899866983e-02    9.2849851562e+04
    1.6909943894e-02    9.2819445312e+04
    1.6919760033e-02    9.2789789062e+04
    1.6929836944e-02    9.2759375000e+04
    1.6939913854e-02    9.2728085938e+04
    1.6949988902e-02    9.2697351562e+04
    1.6959808767e-02    9.2669101562e+04
    1.6969883814e-02    9.2639406250e+04
    1.6979960725e-02    9.2608539062e+04
    1.6989780590e-02    9.2579085938e+04
    1.6999857500e-02    9.2549164062e+04
    1.7009934410e-02    9.2518695312e+04
    1.7019754276e-02    9.2489476562e+04
    1.7029831186e-02    9.2460476562e+04
    1.7039908096e-02    9.2430406250e+04
    1.7049986869e-02    9.2400195312e+04
    1.7059804872e-02    9.2371054688e+04
    1.7069883645e-02    9.2341257812e+04
    1.7079960555e-02    9.2311718750e+04
    1.7089780420e-02    9.2283156250e+04
    1.7099859193e-02    9.2253289062e+04
    1.7109937966e-02    9.2223710938e+04
    1.7119757831e-02    9.2194710938e+04
    1.7129836604e-02    9.2165460938e+04
    1.7139915377e-02    9.2136226562e+04
    1.7149994150e-02    9.2106976562e+04
    1.7159814015e-02    9.2078351562e+04
    1.7169892788e-02    9.2048851562e+04
    1.7179971561e-02    9.2019718750e+04
    1.7189793289e-02    9.1991429688e+04
    1.7199872062e-02    9.1962351562e+04
    1.7209952697e-02    9.1933273438e+04
    1.7219772562e-02    9.1904718750e+04
    1.7229853198e-02    9.1875742188e+04
    1.7239931971e-02    9.1847023438e+04
    1.7249753699e-02    9.1818914062e+04
    1.7259834334e-02    9.1790023438e+04
    1.7269914970e-02    9.1761132812e+04
    1.7279993743e-02    9.1732476562e+04
    1.7289815471e-02    9.1704437500e+04
    1.7299896106e-02    9.1675554688e+04
    1.7309976742e-02    9.1647523438e+04
    1.7319800332e-02    9.1619898438e+04
    1.7329880968e-02    9.1590679688e+04
    1.7339961603e-02    9.1562562500e+04
    1.7349783331e-02    9.1535531250e+04
    1.7359865829e-02    9.1506593750e+04
    1.7369946465e-02    9.1477773438e+04
    1.7379770055e-02    9.1450851562e+04
    1.7389850691e-02    9.1422312500e+04
    1.7399933189e-02    9.1393398438e+04
    1.7409756780e-02    9.1366648438e+04
    1.7419837415e-02    9.1338960938e+04
    1.7429919913e-02    9.1311023438e+04
    1.7439743504e-02    9.1284625000e+04
    1.7449826002e-02    9.1257382812e+04
    1.7459908500e-02    9.1229539062e+04
    1.7469990999e-02    9.1201750000e+04
    1.7479814589e-02    9.1174304688e+04
    1.7489897087e-02    9.1145625000e+04
    1.7499979585e-02    9.1117164062e+04
    1.7509803176e-02    9.1089406250e+04
    1.7519885674e-02    9.1061406250e+04
    1.7529970035e-02    9.1033398438e+04
    1.7539793625e-02    9.1006726562e+04
    1.7549877986e-02    9.0979539062e+04
    1.7559960485e-02    9.0952476562e+04
    1.7569785938e-02    9.0925937500e+04
    1.7579868436e-02    9.0898851562e+04
    1.7589952797e-02    9.0871695312e+04
    1.7599778250e-02    9.0845179688e+04
    1.7609862611e-02    9.0818023438e+04
    1.7619945109e-02    9.0791257812e+04
    1.7629770562e-02    9.0765289062e+04
    1.7639854923e-02    9.0738445312e+04
    1.7649939284e-02    9.0711648438e+04
    1.7659764737e-02    9.0685906250e+04
    1.7669849098e-02    9.0659382812e+04
    1.7679933459e-02    9.0632476562e+04
    1.7689760774e-02    9.0606875000e+04
    1.7699845135e-02    9.0580804688e+04
    1.7709929496e-02    9.0553820312e+04
    1.7719754949e-02    9.0527968750e+04
    1.7729841173e-02    9.0502179688e+04
    1.7739925534e-02    9.0475523438e+04
    1.7749750987e-02    9.0449101562e+04
    1.7759837210e-02    9.0422867188e+04
    1.7769921571e-02    9.0396773438e+04
    1.7779748887e-02    9.0370062500e+04
    1.7789835110e-02    9.0343273438e+04
    1.7799919471e-02    9.0317273438e+04
    1.7809746787e-02    9.0291289062e+04
    1.7819833010e-02    9.0264906250e+04
    1.7829919234e-02    9.0239382812e+04
    1.7839744687e-02    9.0214132812e+04
    1.7849830911e-02    9.0188851562e+04
    1.7859917134e-02    9.0163898438e+04
    1.7869744450e-02    9.0139289062e+04
    1.7879830673e-02    9.0114226562e+04
    1.7889916897e-02    9.0088742188e+04
    1.7899744213e-02    9.0063812500e+04
    1.7909830436e-02    9.0038210938e+04
    1.7919918522e-02    9.0012375000e+04
    1.7929745838e-02    8.9987273438e+04
    1.7939832062e-02    8.9961335938e+04
    1.7949918285e-02    8.9935687500e+04
    1.7959747463e-02    8.9910937500e+04
    1.7969833687e-02    8.9885960938e+04
    1.7979919910e-02    8.9861179688e+04
    1.7989749089e-02    8.9837273438e+04
    1.7999835312e-02    8.9812773438e+04
    1.8009923398e-02    8.9788156250e+04
    1.8019750714e-02    8.9763804688e+04
    1.8029838800e-02    8.9738687500e+04
    1.8039925024e-02    8.9713757812e+04
    1.8049754202e-02    8.9689601562e+04
    1.8059842288e-02    8.9664539062e+04
    1.8069928512e-02    8.9640117188e+04
    1.8079757690e-02    8.9616867188e+04
    1.8089845777e-02    8.9592210938e+04
    1.8099933863e-02    8.9567601562e+04
    1.8109763041e-02    8.9544585938e+04
    1.8119849265e-02    8.9520492188e+04
    1.8129937351e-02    8.9495687500e+04
    1.8139766529e-02    8.9472085938e+04
    1.8149854615e-02    8.9448476562e+04
    1.8159942701e-02    8.9424164062e+04
    1.8169771880e-02    8.9400460938e+04
    1.8179859966e-02    8.9377125000e+04
    1.8189948052e-02    8.9353468750e+04
    1.8199777231e-02    8.9330125000e+04
    1.8209865317e-02    8.9306507812e+04
    1.8219953403e-02    8.9283101562e+04
    1.8229782581e-02    8.9259937500e+04
    1.8239870667e-02    8.9236476562e+04
    1.8249958754e-02    8.9213273438e+04
    1.8259789795e-02    8.9190585938e+04
    1.8269877881e-02    8.9167273438e+04
    1.8279965967e-02    8.9144195312e+04
    1.8289795145e-02    8.9121492188e+04
    1.8299885094e-02    8.9098414062e+04
    1.8309973180e-02    8.9075414062e+04
    1.8319802359e-02    8.9053031250e+04
    1.8329892308e-02    8.9030273438e+04
    1.8339980394e-02    8.9007398438e+04
    1.8349809572e-02    8.8985304688e+04
    1.8359899521e-02    8.8962585938e+04
    1.8369987607e-02    8.8940023438e+04
    1.8379818648e-02    8.8918039062e+04
    1.8389906734e-02    8.8895601562e+04
    1.8399994820e-02    8.8873164062e+04
    1.8409825861e-02    8.8851500000e+04
    1.8419913948e-02    8.8829398438e+04
    1.8429744989e-02    8.8807906250e+04
    1.8439833075e-02    8.8785648438e+04
    1.8449923024e-02    8.8763523438e+04
    1.8459752202e-02    8.8742335938e+04
    1.8469842151e-02    8.8720468750e+04
    1.8479930237e-02    8.8698101562e+04
    1.8489761278e-02    8.8677039062e+04
    1.8499849364e-02    8.8656039062e+04
    1.8509939313e-02    8.8633843750e+04
    1.8519770354e-02    8.8612468750e+04
    1.8529858440e-02    8.8591906250e+04
    1.8539948389e-02    8.8570273438e+04
    1.8549777567e-02    8.8548960938e+04
    1.8559867516e-02    8.8528164062e+04
    1.8569957465e-02    8.8507039062e+04
    1.8579786643e-02    8.8486257812e+04
    1.8589876592e-02    8.8465156250e+04
    1.8599964678e-02    8.8444554688e+04
    1.8609795719e-02    8.8424132812e+04
    1.8619885668e-02    8.8403164062e+04
    1.8629973754e-02    8.8382625000e+04
    1.8639804795e-02    8.8362460938e+04
    1.8649894744e-02    8.8341789062e+04
    1.8659982830e-02    8.8321375000e+04
    1.8669813871e-02    8.8301460938e+04
    1.8679903820e-02    8.8281039062e+04
    1.8689991906e-02    8.8260789062e+04
    1.8699822947e-02    8.8240976562e+04
    1.8709912896e-02    8.8220851562e+04
    1.8719742075e-02    8.8201281250e+04
    1.8729832023e-02    8.8181210938e+04
    1.8739921972e-02    8.8161289062e+04
    1.8749751151e-02    8.8141789062e+04
    1.8759841099e-02    8.8122054688e+04
    1.8769931048e-02    8.8102257812e+04
    1.8779760227e-02    8.8083179688e+04
    1.8789850175e-02    8.8063523438e+04
    1.8799940124e-02    8.8044101562e+04
    1.8809769303e-02    8.8025132812e+04
    1.8819859251e-02    8.8005664062e+04
    1.8829949200e-02    8.7986179688e+04
    1.8839778379e-02    8.7967648438e+04
    1.8849868327e-02    8.7948656250e+04
    1.8859958276e-02    8.7929250000e+04
    1.8869787455e-02    8.7910679688e+04
    1.8879877403e-02    8.7892398438e+04
    1.8889967352e-02    8.7873351562e+04
    1.8899796531e-02    8.7854468750e+04
    1.8909886479e-02    8.7836437500e+04
    1.8919974566e-02    8.7817976562e+04
    1.8929805607e-02    8.7799164062e+04
    1.8939895555e-02    8.7780937500e+04
    1.8949983642e-02    8.7762835938e+04
    1.8959814683e-02    8.7744617188e+04
    1.8969904631e-02    8.7726304688e+04
    1.8979992718e-02    8.7708460938e+04
    1.8989823759e-02    8.7690656250e+04
    1.8999913707e-02    8.7672414062e+04
    1.9009742886e-02    8.7655023438e+04
    1.9019832835e-02    8.7637156250e+04
    1.9029920921e-02    8.7619289062e+04
    1.9039751962e-02    8.7601976562e+04
    1.9049841911e-02    8.7584343750e+04
    1.9059929997e-02    8.7566562500e+04
    1.9069761038e-02    8.7549625000e+04
    1.9079849124e-02    8.7532023438e+04
    1.9089939073e-02    8.7514632812e+04
    1.9099770114e-02    8.7497687500e+04
    1.9109858200e-02    8.7480375000e+04
    1.9119948149e-02    8.7463195312e+04
    1.9129777327e-02    8.7446460938e+04
    1.9139867276e-02    8.7429398438e+04
    1.9149955362e-02    8.7412351562e+04
    1.9159786403e-02    8.7395875000e+04
    1.9169874489e-02    8.7379054688e+04
    1.9179964438e-02    8.7362429688e+04
    1.9189795479e-02    8.7346234375e+04
    1.9199883565e-02    8.7329546875e+04
    1.9209971651e-02    8.7312875000e+04
    1.9219802693e-02    8.7297062500e+04
    1.9229892641e-02    8.7280921875e+04
    1.9239980727e-02    8.7264375000e+04
    1.9249811769e-02    8.7248406250e+04
    1.9259899855e-02    8.7232773438e+04
    1.9269989803e-02    8.7216539062e+04
    1.9279818982e-02    8.7200304688e+04
    1.9289908931e-02    8.7184875000e+04
    1.9299998879e-02    8.7169343750e+04
    1.9309828058e-02    8.7153218750e+04
    1.9319918007e-02    8.7137601562e+04
    1.9329749048e-02    8.7122687500e+04
    1.9339837134e-02    8.7106781250e+04
    1.9349927083e-02    8.7091281250e+04
    1.9359758124e-02    8.7076468750e+04
    1.9369848073e-02    8.7060937500e+04
    1.9379938021e-02    8.7045609375e+04
    1.9389769062e-02    8.7030953125e+04
    1.9399860874e-02    8.7015671875e+04
    1.9409950823e-02    8.7000710938e+04
    1.9419781864e-02    8.6986070312e+04
    1.9429871812e-02    8.6971125000e+04
    1.9439963624e-02    8.6956265625e+04
[...]
    1.1513980478e-01    1.0122913281e+05
    1.1514969915e-01    1.0122913281e+05
    1.1515989155e-01    1.0122912500e+05
    1.1516978592e-01    1.0122911719e+05
    1.1517997831e-01    1.0122910156e+05
    1.1518987268e-01    1.0122910156e+05
    1.1519976705e-01    1.0122909375e+05
    1.1520995945e-01    1.0122908594e+05
    1.1521985382e-01    1.0122907031e+05
    1.1522974819e-01    1.0122905469e+05
    1.1523994058e-01    1.0122903906e+05
    1.1524983495e-01    1.0122903906e+05
    1.1525972933e-01    1.0122903125e+05
    1.1526992172e-01    1.0122902344e+05
    1.1527981609e-01    1.0122902344e+05
    1.1528971046e-01    1.0122900781e+05
    1.1529990286e-01    1.0122900000e+05
    1.1530979723e-01    1.0122899219e+05
    1.1531998962e-01    1.0122897656e+05
    1.1532988399e-01    1.0122897656e+05
    1.1533977091e-01    1.0122896875e+05
    1.1534996331e-01    1.0122896094e+05
    1.1535985768e-01    1.0122896094e+05
    1.1536975205e-01    1.0122896094e+05
    1.1537994444e-01    1.0122894531e+05
    1.1538983881e-01    1.0122893750e+05
    1.1539973319e-01    1.0122892969e+05
    1.1540992558e-01    1.0122892969e+05
    1.1541981995e-01    1.0122891406e+05
    1.1542971432e-01    1.0122891406e+05
    1.1543990672e-01    1.0122890625e+05
    1.1544980109e-01    1.0122889844e+05
    1.1545999348e-01    1.0122889844e+05
    1.1546988785e-01    1.0122887500e+05
    1.1547978222e-01    1.0122886719e+05
    1.1548997462e-01    1.0122885156e+05
    1.1549986899e-01    1.0122885156e+05
    1.1550976336e-01    1.0122884375e+05
    1.1551995575e-01    1.0122884375e+05
    1.1552985013e-01    1.0122883594e+05
    1.1553973705e-01    1.0122883594e+05
    1.1554993689e-01    1.0122882031e+05
    1.1555982381e-01    1.0122882031e+05
    1.1556971818e-01    1.0122880469e+05
    1.1557991058e-01    1.0122878906e+05
    1.1558980495e-01    1.0122878906e+05
    1.1559999734e-01    1.0122878125e+05
    1.1560989171e-01    1.0122877344e+05
    1.1561978608e-01    1.0122875781e+05
    1.1562997848e-01    1.0122875000e+05
    1.1563987285e-01    1.0122874219e+05
    1.1564976722e-01    1.0122872656e+05
    1.1565995961e-01    1.0122872656e+05
    1.1566985399e-01    1.0122872656e+05
    1.1567974836e-01    1.0122871875e+05
    1.1568994075e-01    1.0122871094e+05
    1.1569983512e-01    1.0122871094e+05
    1.1570972949e-01    1.0122871094e+05
    1.1571992189e-01    1.0122869531e+05
    1.1572981626e-01    1.0122868750e+05
    1.1573970318e-01    1.0122867969e+05
    1.1574990302e-01    1.0122866406e+05
    1.1575978994e-01    1.0122866406e+05
    1.1576998234e-01    1.0122865625e+05
    1.1577987671e-01    1.0122864844e+05
    1.1578977108e-01    1.0122863281e+05
    1.1579996347e-01    1.0122862500e+05
    1.1580985785e-01    1.0122860156e+05
    1.1581975222e-01    1.0122860156e+05
    1.1582994461e-01    1.0122859375e+05
    1.1583983898e-01    1.0122858594e+05
    1.1584973335e-01    1.0122858594e+05
    1.1585992575e-01    1.0122857031e+05
    1.1586982012e-01    1.0122856250e+05
    1.1587971449e-01    1.0122855469e+05
    1.1588990688e-01    1.0122855469e+05
    1.1589980125e-01    1.0122853906e+05
    1.1590999365e-01    1.0122853906e+05
    1.1591988802e-01    1.0122853125e+05
    1.1592978239e-01    1.0122852344e+05
    1.1593997478e-01    1.0122852344e+05
    1.1594986916e-01    1.0122850781e+05
    1.1595975608e-01    1.0122850781e+05
    1.1596995592e-01    1.0122850000e+05
    1.1597984284e-01    1.0122849219e+05
    1.1598973721e-01    1.0122847656e+05
    1.1599992961e-01    1.0122847656e+05
    1.1600982398e-01    1.0122846875e+05
    1.1601971835e-01    1.0122846094e+05
    1.1602991074e-01    1.0122846094e+05
    1.1603980511e-01    1.0122844531e+05
    1.1604999751e-01    1.0122843750e+05
    1.1605989188e-01    1.0122842969e+05
    1.1606978625e-01    1.0122841406e+05
    1.1607997864e-01    1.0122841406e+05
    1.1608987302e-01    1.0122841406e+05
    1.1609976739e-01    1.0122840625e+05
    1.1610995978e-01    1.0122839844e+05
    1.1611985415e-01    1.0122839844e+05
    1.1612974852e-01    1.0122838281e+05
    1.1613994092e-01    1.0122837500e+05
    1.1614983529e-01    1.0122836719e+05
    1.1615972221e-01    1.0122835156e+05
    1.1616992205e-01    1.0122835156e+05
    1.1617980897e-01    1.0122834375e+05
    1.1618970335e-01    1.0122833594e+05
    1.1619989574e-01    1.0122833594e+05
    1.1620979011e-01    1.0122832031e+05
    1.1621998250e-01    1.0122831250e+05
    1.1622987688e-01    1.0122830469e+05
    1.1623977125e-01    1.0122828906e+05
    1.1624996364e-01    1.0122828906e+05
    1.1625985801e-01    1.0122828125e+05
    1.1626975238e-01    1.0122827344e+05
    1.1627994478e-01    1.0122827344e+05
    1.1628983915e-01    1.0122827344e+05
    1.1629973352e-01    1.0122825781e+05
    1.1630992591e-01    1.0122825000e+05
    1.1631982028e-01    1.0122824219e+05
    1.1632971466e-01    1.0122822656e+05
    1.1633990705e-01    1.0122822656e+05
    1.1634980142e-01    1.0122821875e+05
    1.1635999382e-01    1.0122821094e+05
    1.1636988819e-01    1.0122821094e+05
    1.1637977511e-01    1.0122819531e+05
    1.1638997495e-01    1.0122818750e+05
    1.1639986187e-01    1.0122817969e+05
    1.1640975624e-01    1.0122817969e+05
    1.1641994864e-01    1.0122816406e+05
    1.1642984301e-01    1.0122816406e+05
    1.1643973738e-01    1.0122815625e+05
    1.1644992977e-01    1.0122814844e+05
    1.1645982414e-01    1.0122814844e+05
    1.1646971852e-01    1.0122813281e+05
    1.1647991091e-01    1.0122812500e+05
    1.1648980528e-01    1.0122811719e+05
    1.1649999768e-01    1.0122810156e+05
    1.1650989205e-01    1.0122810156e+05
    1.1651978642e-01    1.0122810156e+05
    1.1652997881e-01    1.0122809375e+05
    1.1653987318e-01    1.0122808594e+05
    1.1654976755e-01    1.0122808594e+05
    1.1655995995e-01    1.0122807031e+05
    1.1656985432e-01    1.0122806250e+05
    1.1657974124e-01    1.0122805469e+05
    1.1658994108e-01    1.0122805469e+05
    1.1659982800e-01    1.0122803906e+05
    1.1660972238e-01    1.0122803906e+05
    1.1661991477e-01    1.0122803125e+05
    1.1662980914e-01    1.0122802344e+05
    1.1663970351e-01    1.0122802344e+05
    1.1664989591e-01    1.0122800781e+05
    1.1665979028e-01    1.0122800000e+05
    1.1666998267e-01    1.0122799219e+05
    1.1667987704e-01    1.0122797656e+05
    1.1668977141e-01    1.0122797656e+05
    1.1669996381e-01    1.0122796875e+05
    1.1670985818e-01    1.0122796094e+05
    1.1671975255e-01    1.0122796094e+05
    1.1672994494e-01    1.0122794531e+05
    1.1673983932e-01    1.0122793750e+05
    1.1674973369e-01    1.0122792969e+05
    1.1675992608e-01    1.0122791406e+05
    1.1676982045e-01    1.0122791406e+05
    1.1677971482e-01    1.0122791406e+05
    1.1678990722e-01    1.0122790625e+05
    1.1679979414e-01    1.0122789844e+05
    1.1680999398e-01    1.0122789844e+05
    1.1681988090e-01    1.0122788281e+05
    1.1682977527e-01    1.0122788281e+05
    1.1683996767e-01    1.0122787500e+05
    1.1684986204e-01    1.0122786719e+05
    1.1685975641e-01    1.0122785156e+05
    1.1686994880e-01    1.0122785156e+05
    1.1687984318e-01    1.0122784375e+05
    1.1688973755e-01    1.0122783594e+05
    1.1689992994e-01    1.0122783594e+05
    1.1690982431e-01    1.0122782031e+05
    1.1691971868e-01    1.0122781250e+05
    1.1692991108e-01    1.0122780469e+05
    1.1693980545e-01    1.0122778906e+05
    1.1694999784e-01    1.0122778906e+05
    1.1695989221e-01    1.0122778125e+05
    1.1696978658e-01    1.0122777344e+05
    1.1697997898e-01    1.0122777344e+05
    1.1698987335e-01    1.0122777344e+05
    1.1699976772e-01    1.0122775781e+05
    1.1700996011e-01    1.0122775000e+05
    1.1701985449e-01    1.0122774219e+05
    1.1702974141e-01    1.0122772656e+05
    1.1703993380e-01    1.0122772656e+05
    1.1704982817e-01    1.0122771875e+05
    1.1705972254e-01    1.0122771094e+05
    1.1706991494e-01    1.0122771094e+05
    1.1707980931e-01    1.0122769531e+05
    1.1708970368e-01    1.0122767969e+05
    1.1709989607e-01    1.0122766406e+05
    1.1710979044e-01    1.0122766406e+05
    1.1711998284e-01    1.0122765625e+05
    1.1712987721e-01    1.0122765625e+05
    1.1713977158e-01    1.0122764844e+05
    1.1714996397e-01    1.0122764844e+05
    1.1715985835e-01    1.0122764844e+05
    1.1716975272e-01    1.0122763281e+05
    1.1717994511e-01    1.0122763281e+05
    1.1718983948e-01    1.0122762500e+05
    1.1719973385e-01    1.0122761719e+05
    1.1720992625e-01    1.0122761719e+05
    1.1721982062e-01    1.0122760156e+05
    1.1722970754e-01    1.0122760156e+05
    1.1723990738e-01    1.0122760156e+05
    1.1724979430e-01    1.0122758594e+05
    1.1725998670e-01    1.0122758594e+05
    1.1726988107e-01    1.0122757031e+05
    1.1727977544e-01    1.0122756250e+05
    1.1728996783e-01    1.0122755469e+05
    1.1729986221e-01    1.0122753906e+05
    1.1730975658e-01    1.0122753125e+05
    1.1731994897e-01    1.0122753125e+05
    1.1732984334e-01    1.0122752344e+05
    1.1733973771e-01    1.0122752344e+05
    1.1734993011e-01    1.0122752344e+05
    1.1735982448e-01    1.0122750781e+05
    1.1736971885e-01    1.0122750000e+05
    1.1737991124e-01    1.0122749219e+05
    1.1738980561e-01    1.0122749219e+05
    1.1739999801e-01    1.0122747656e+05
    1.1740989238e-01    1.0122747656e+05
    1.1741978675e-01    1.0122746875e+05
    1.1742997915e-01    1.0122746094e+05
    1.1743987352e-01    1.0122746094e+05
    1.1744976044e-01    1.0122744531e+05
    1.1745996028e-01    1.0122743750e+05
    1.1746984720e-01    1.0122742969e+05
    1.1747974157e-01    1.0122741406e+05
    1.1748993397e-01    1.0122741406e+05
    1.1749982834e-01    1.0122740625e+05
    1.1750972271e-01    1.0122739844e+05
    1.1751991510e-01    1.0122739844e+05
    1.1752980947e-01    1.0122738281e+05
    1.1753970385e-01    1.0122737500e+05
    1.1754989624e-01    1.0122736719e+05
    1.1755979061e-01    1.0122735156e+05
    1.1756998301e-01    1.0122735156e+05
    1.1757987738e-01    1.0122735156e+05
    1.1758977175e-01    1.0122734375e+05
    1.1759996414e-01    1.0122734375e+05
    1.1760985851e-01    1.0122733594e+05
    1.1761975288e-01    1.0122733594e+05
    1.1762994528e-01    1.0122733594e+05
    1.1763983965e-01    1.0122732031e+05
    1.1764972657e-01    1.0122731250e+05
    1.1765992641e-01    1.0122730469e+05
    1.1766981333e-01    1.0122728906e+05
    1.1767970771e-01    1.0122728906e+05
    1.1768990010e-01    1.0122728125e+05
    1.1769979447e-01    1.0122727344e+05
    1.1770998687e-01    1.0122727344e+05
    1.1771988124e-01    1.0122725781e+05
    1.1772977561e-01    1.0122725000e+05
    1.1773996800e-01    1.0122724219e+05
    1.1774986237e-01    1.0122722656e+05
    1.1775975674e-01    1.0122722656e+05
    1.1776994914e-01    1.0122722656e+05
    1.1777984351e-01    1.0122721875e+05
    1.1778973788e-01    1.0122721094e+05
    1.1779993027e-01    1.0122721094e+05
    1.1780982465e-01    1.0122719531e+05
    1.1781971902e-01    1.0122718750e+05
    1.1782991141e-01    1.0122717969e+05
    1.1783980578e-01    1.0122716406e+05
    1.1784999818e-01    1.0122716406e+05
    1.1785989255e-01    1.0122715625e+05
    1.1786977947e-01    1.0122714844e+05
    1.1787997931e-01    1.0122714844e+05
    1.1788986623e-01    1.0122713281e+05
    1.1789976060e-01    1.0122712500e+05
    1.1790995300e-01    1.0122711719e+05
    1.1791984737e-01    1.0122711719e+05
    1.1792974174e-01    1.0122710156e+05
    1.1793993413e-01    1.0122710156e+05
    1.1794982851e-01    1.0122709375e+05
    1.1795972288e-01    1.0122709375e+05
    1.1796991527e-01    1.0122708594e+05
    1.1797980964e-01    1.0122708594e+05
    1.1798970401e-01    1.0122707031e+05
    1.1799989641e-01    1.0122706250e+05
    1.1800979078e-01    1.0122705469e+05
    1.1801998317e-01    1.0122703906e+05
    1.1802987754e-01    1.0122703906e+05
    1.1803977191e-01    1.0122702344e+05
    1.1804996431e-01    1.0122702344e+05
    1.1805985868e-01    1.0122700781e+05
    1.1806975305e-01    1.0122700000e+05
    1.1807994545e-01    1.0122700000e+05
    1.1808983237e-01    1.0122699219e+05
    1.1809972674e-01    1.0122697656e+05
    1.1810991913e-01    1.0122697656e+05
    1.1811981350e-01    1.0122696875e+05
    1.1812970787e-01    1.0122696875e+05
    1.1813990027e-01    1.0122696094e+05
    1.1814979464e-01    1.0122696094e+05
    1.1815998703e-01    1.0122694531e+05
    1.1816988140e-01    1.0122693750e+05
    1.1817977577e-01    1.0122692969e+05
    1.1818996817e-01    1.0122691406e+05
    1.1819986254e-01    1.0122691406e+05
    1.1820975691e-01    1.0122691406e+05
    1.1821994931e-01    1.0122690625e+05
    1.1822984368e-01    1.0122689844e+05
    1.1823973805e-01    1.0122689844e+05
    1.1824993044e-01    1.0122688281e+05
    1.1825982481e-01    1.0122687500e+05
    1.1826971918e-01    1.0122686719e+05
    1.1827991158e-01    1.0122686719e+05
    1.1828980595e-01    1.0122685156e+05
    1.1829999834e-01    1.0122685156e+05
    1.1830989271e-01    1.0122684375e+05
    1.1831977963e-01    1.0122683594e+05
    1.1832997948e-01    1.0122683594e+05
    1.1833986640e-01    1.0122682031e+05
    1.1834976077e-01    1.0122681250e+05
    1.1835995317e-01    1.0122680469e+05
    1.1836984754e-01    1.0122678906e+05
    1.1837974191e-01    1.0122678906e+05
    1.1838993430e-01    1.0122678125e+05
    1.1839982867e-01    1.0122677344e+05
    1.1840972304e-01    1.0122677344e+05
    1.1841991544e-01    1.0122677344e+05
    1.1842980981e-01    1.0122675781e+05
    1.1843970418e-01    1.0122675000e+05
    1.1844989657e-01    1.0122674219e+05
    1.1845979095e-01    1.0122672656e+05
    1.1846998334e-01    1.0122672656e+05
    1.1847987771e-01    1.0122671875e+05
    1.1848977208e-01    1.0122671094e+05
    1.1849996448e-01    1.0122671094e+05
    1.1850985885e-01    1.0122671094e+05
    1.1851974577e-01    1.0122669531e+05
    1.1852994561e-01    1.0122668750e+05
    1.1853983253e-01    1.0122667969e+05
    1.1854972690e-01    1.0122666406e+05
    1.1855991930e-01    1.0122666406e+05
    1.1856981367e-01    1.0122666406e+05
    1.1857970804e-01    1.0122665625e+05
    1.1858990043e-01    1.0122664844e+05
    1.1859979481e-01    1.0122664844e+05
    1.1860998720e-01    1.0122663281e+05
    1.1861988157e-01    1.0122662500e+05
    1.1862977594e-01    1.0122661719e+05
    1.1863996834e-01    1.0122660156e+05
    1.1864986271e-01    1.0122660156e+05
    1.1865975708e-01    1.0122660156e+05
    1.1866994947e-01    1.0122659375e+05
    1.1867984384e-01    1.0122658594e+05
    1.1868973821e-01    1.0122658594e+05
    1.1869993061e-01    1.0122658594e+05
    1.1870982498e-01    1.0122657031e+05
    1.1871971935e-01    1.0122656250e+05
    1.1872991174e-01    1.0122655469e+05
    1.1873980612e-01    1.0122655469e+05
    1.1874999851e-01    1.0122653906e+05
    1.1875989288e-01    1.0122653906e+05
    1.1876977980e-01    1.0122653125e+05
    1.1877997965e-01    1.0122652344e+05
    1.1878986657e-01    1.0122650781e+05
    1.1879976094e-01    1.0122650000e+05
    1.1880995333e-01    1.0122649219e+05
    1.1881984770e-01    1.0122649219e+05
    1.1882974207e-01    1.0122647656e+05
    1.1883993447e-01    1.0122647656e+05
    1.1884982884e-01    1.0122646875e+05
    1.1885972321e-01    1.0122646094e+05
    1.1886991560e-01    1.0122646094e+05
    1.1887980998e-01    1.0122644531e+05
    1.1888970435e-01    1.0122643750e+05
    1.1889989674e-01    1.0122642969e+05
    1.1890979111e-01    1.0122641406e+05
    1.1891998351e-01    1.0122641406e+05
    1.1892987788e-01    1.0122641406e+05
    1.1893977225e-01    1.0122640625e+05
    1.1894996464e-01    1.0122640625e+05
    1.1895985901e-01    1.0122639844e+05
    1.1896975338e-01    1.0122639844e+05
    1.1897994578e-01    1.0122639844e+05
    1.1898984015e-01    1.0122638281e+05
    1.1899972707e-01    1.0122637500e+05
    1.1900992692e-01    1.0122636719e+05
    1.1901981384e-01    1.0122635156e+05
    1.1902970821e-01    1.0122635156e+05
    1.1903990060e-01    1.0122634375e+05
    1.1904979497e-01    1.0122633594e+05
    1.1905998737e-01    1.0122633594e+05
    1.1906988174e-01    1.0122632031e+05
    1.1907977611e-01    1.0122631250e+05
    1.1908996850e-01    1.0122630469e+05
    1.1909986287e-01    1.0122630469e+05
    1.1910975724e-01    1.0122628906e+05
    1.1911994964e-01    1.0122628906e+05
    1.1912984401e-01    1.0122628125e+05
    1.1913973838e-01    1.0122627344e+05
    1.1914993078e-01    1.0122627344e+05
    1.1915982515e-01    1.0122627344e+05
    1.1916971952e-01    1.0122625781e+05
    1.1917991191e-01    1.0122625000e+05
    1.1918980628e-01    1.0122624219e+05
    1.1919999868e-01    1.0122624219e+05
    1.1920989305e-01    1.0122622656e+05
    1.1921978742e-01    1.0122622656e+05
    1.1922997981e-01    1.0122622656e+05
    1.1923987418e-01    1.0122621875e+05
    1.1924976110e-01    1.0122621094e+05
    1.1925996095e-01    1.0122621094e+05
    1.1926984787e-01    1.0122621094e+05
    1.1927974224e-01    1.0122619531e+05
    1.1928993464e-01    1.0122618750e+05
    1.1929982901e-01    1.0122617969e+05
    1.1930972338e-01    1.0122616406e+05
    1.1931991577e-01    1.0122616406e+05
    1.1932981014e-01    1.0122615625e+05
    1.1933970451e-01    1.0122614844e+05
    1.1934989691e-01    1.0122614844e+05
    1.1935979128e-01    1.0122614844e+05
    1.1936998367e-01    1.0122613281e+05
    1.1937987804e-01    1.0122613281e+05
    1.1938977242e-01    1.0122612500e+05
    1.1939996481e-01    1.0122611719e+05
    1.1940985918e-01    1.0122610156e+05
    1.1941975355e-01    1.0122609375e+05
    1.1942994595e-01    1.0122608594e+05
    1.1943984032e-01    1.0122608594e+05
    1.1944973469e-01    1.0122607031e+05
    1.1945992708e-01    1.0122606250e+05
    1.1946982145e-01    1.0122606250e+05
    1.1947970837e-01    1.0122605469e+05
    1.1948990822e-01    1.0122603906e+05
    1.1949979514e-01    1.0122603906e+05
    1.1950999498e-01    1.0122603906e+05
    1.1951988190e-01    1.0122603906e+05
    1.1952977628e-01    1.0122603125e+05
    1.1953996867e-01    1.0122603125e+05
    1.1954986304e-01    1.0122602344e+05
    1.1955975741e-01    1.0122602344e+05
    1.1956994981e-01    1.0122600781e+05
    1.1957984418e-01    1.0122600000e+05
    1.1958973855e-01    1.0122597656e+05
    1.1959993094e-01    1.0122597656e+05
    1.1960982531e-01    1.0122596875e+05
    1.1961971968e-01    1.0122596094e+05
    1.1962991208e-01    1.0122596094e+05
    1.1963980645e-01    1.0122596094e+05
    1.1964999884e-01    1.0122594531e+05
    1.1965989321e-01    1.0122594531e+05
    1.1966978759e-01    1.0122593750e+05
    1.1967997998e-01    1.0122592969e+05
    1.1968987435e-01    1.0122591406e+05
    1.1969976872e-01    1.0122591406e+05
    1.1970996112e-01    1.0122590625e+05
    1.1971985549e-01    1.0122589844e+05
    1.1972974241e-01    1.0122589844e+05
    1.1973994225e-01    1.0122589844e+05
    1.1974982917e-01    1.0122588281e+05
    1.1975972354e-01    1.0122587500e+05
    1.1976991594e-01    1.0122586719e+05
    1.1977981031e-01    1.0122585156e+05
    1.1978970468e-01    1.0122585156e+05
    1.1979989707e-01    1.0122585156e+05
    1.1980979145e-01    1.0122584375e+05
    1.1981998384e-01    1.0122583594e+05
    1.1982987821e-01    1.0122583594e+05
    1.1983977258e-01    1.0122583594e+05
    1.1984996498e-01    1.0122582031e+05
    1.1985985935e-01    1.0122581250e+05
    1.1986975372e-01    1.0122580469e+05
    1.1987994611e-01    1.0122580469e+05
    1.1988984048e-01    1.0122578906e+05
    1.1989973485e-01    1.0122578906e+05
    1.1990992725e-01    1.0122578125e+05
    1.1991982162e-01    1.0122577344e+05
    1.1992971599e-01    1.0122577344e+05
    1.1993990839e-01    1.0122575781e+05
    1.1994980276e-01    1.0122575000e+05
    1.1995999515e-01    1.0122574219e+05
    1.1996988952e-01    1.0122574219e+05
    1.1997977644e-01    1.0122572656e+05
    1.1998997629e-01    1.0122572656e+05
    1.1999986321e-01    1.0122571875e+05
endcurve
