Curveplot
LS-DYNA keyword deck by LS-PrePost                          
Time
Pressure
Defined Connection
Pressure @ 1 #pts=12001
* Minval=     1.6844081116e+02 at time=         0.0036197675
* Maxval=     8.2331065000e+06 at time=         0.0002399929
    0.0000000000e+00    1.0120000000e+05
    9.9485323517e-06    1.0120000000e+05
    1.9897432139e-05    1.0120000000e+05
    2.9949662348e-05    1.0120000000e+05
    3.9958817069e-05    1.0120000000e+05
    4.9998594477e-05    1.0120000000e+05
    5.9946691181e-05    1.0120000000e+05
    6.9980866101e-05    1.0120000000e+05
    7.9975681729e-05    1.0120000000e+05
    8.9942855993e-05    1.0120000000e+05
    9.9963210232e-05    1.0120000000e+05
    1.0997567733e-04    1.0120000000e+05
    1.1997246474e-04    1.0120000000e+05
    1.2994048302e-04    1.0120000000e+05
    1.3994229084e-04    1.0120000000e+05
    1.4997269318e-04    1.0120000000e+05
    1.5995185822e-04    1.0120000000e+05
    1.6994621546e-04    1.0120000000e+05
    1.7995006056e-04    1.0120000000e+05
    1.8995697610e-04    1.0120000000e+05
    1.9996124320e-04    1.0120000000e+05
    2.0995673549e-04    1.0120000000e+05
    2.1993687551e-04    1.0120000000e+05
    2.2997763881e-04    1.0120000000e+05
    2.3999286350e-04    8.2331065000e+06
    2.4997568107e-04    7.1118145000e+06
    2.5991993607e-04    6.2527140000e+06
    2.6999291731e-04    5.5829290000e+06
    2.7993097319e-04    4.2566515000e+06
    2.8999062488e-04    2.0486440000e+06
    2.9999055550e-04    1.6333707812e+05
    3.0992750544e-04    1.7317320312e+05
    3.1997670885e-04    1.8587748438e+05
    3.2995041693e-04    2.0345176562e+05
    3.3993669786e-04    2.1984857812e+05
    3.4993109875e-04    2.3489448438e+05
    3.5992189078e-04    2.4826004688e+05
    3.6999618169e-04    2.5972723438e+05
    3.7996342871e-04    2.6903340625e+05
    3.8991621113e-04    2.7613284375e+05
    3.9995161933e-04    2.8106884375e+05
    4.0996912867e-04    2.8385215625e+05
    4.1997022345e-04    2.8451725000e+05
    4.2995173135e-04    2.8331006250e+05
    4.3991199345e-04    2.8033771875e+05
    4.4995039934e-04    2.7578903125e+05
    4.5996767585e-04    2.6993121875e+05
    4.6996059245e-04    2.6298056250e+05
    4.7992743202e-04    2.5514723438e+05
    4.8996921396e-04    2.4654414062e+05
    4.9998704344e-04    2.3745218750e+05
    5.0997582730e-04    2.2806132812e+05
    5.1993393572e-04    2.1850975000e+05
    5.2996800514e-04    2.0883404688e+05
    5.3997064242e-04    1.9925351562e+05
    5.4994015954e-04    1.8984545312e+05
    5.5998633616e-04    1.8058457812e+05
    5.6999729713e-04    1.7163657812e+05
    5.7996914256e-04    1.6304450000e+05
    5.8990425896e-04    1.5482473438e+05
    5.9991440503e-04    1.4690639062e+05
    6.0988403857e-04    1.3939809375e+05
    6.1992870178e-04    1.3221346875e+05
    6.2992901076e-04    1.2544346094e+05
    6.3988764305e-04    1.1908353906e+05
    6.4992054831e-04    1.1304710156e+05
    6.5990776056e-04    1.0738689844e+05
    6.6996930400e-04    1.0202157031e+05
    6.7998346640e-04    9.7007500000e+04
    6.8994605681e-04    9.2329476562e+04
    6.9998443360e-04    8.7908976562e+04
    7.0997187868e-04    8.3777257812e+04
    7.1990652941e-04    7.9905351562e+04
    7.2991376510e-04    7.6224304688e+04
    7.3999434244e-04    7.2723406250e+04
    7.4988871347e-04    6.9477953125e+04
    7.5998716056e-04    6.6348968750e+04
    7.6989817899e-04    6.3446582031e+04
    7.7988067642e-04    6.0680699219e+04
    7.8993546776e-04    5.8043730469e+04
    7.9992978135e-04    5.5560890625e+04
    8.0999534111e-04    5.3190496094e+04
    8.1999727990e-04    5.0956269531e+04
    8.2993658725e-04    4.8847906250e+04
    8.3994684974e-04    4.6830250000e+04
    8.4989034804e-04    4.4924812500e+04
    8.5990462685e-04    4.3099457031e+04
    8.6999038467e-04    4.1350558594e+04
    8.7986333529e-04    3.9720585938e+04
    8.8994577527e-04    3.8135160156e+04
    8.9996121824e-04    3.6634968750e+04
    9.0990302851e-04    3.5215445312e+04
    9.1991457157e-04    3.3852285156e+04
    9.2999666231e-04    3.2543169922e+04
    9.3985488638e-04    3.1321619141e+04
    9.4992981758e-04    3.0129810547e+04
    9.5992599381e-04    2.9000923828e+04
    9.6998800291e-04    2.7915724609e+04
    9.7997242119e-04    2.6886984375e+04
    9.8987319507e-04    2.5911798828e+04
    9.9999562372e-04    2.4958697266e+04
    1.0098790517e-03    2.4068843750e+04
    1.0199855315e-03    2.3198421875e+04
    1.0298480047e-03    2.2385646484e+04
    1.0399352759e-03    2.1589914062e+04
    1.0499326745e-03    2.0835000000e+04
    1.0599982925e-03    2.0107193359e+04
    1.0699668201e-03    1.9416712891e+04
    1.0798444273e-03    1.8760865234e+04
    1.0899517220e-03    1.8117515625e+04
    1.0999630904e-03    1.7506609375e+04
    1.1098759715e-03    1.6926314453e+04
    1.1198547436e-03    1.6365715820e+04
    1.1298998725e-03    1.5824122070e+04
    1.1398429051e-03    1.5309448242e+04
    1.1498517124e-03    1.4811899414e+04
    1.1599266436e-03    1.4330891602e+04
    1.1698961025e-03    1.3873609375e+04
    1.1799308704e-03    1.3431245117e+04
    1.1898569064e-03    1.3010562500e+04
    1.1998411501e-03    1.2603597656e+04
    1.2098965235e-03    1.2209405273e+04
    1.2198393233e-03    1.1834401367e+04
    1.2298461515e-03    1.1471166992e+04
    1.2399174739e-03    1.1119325195e+04
    1.2498724973e-03    1.0784499023e+04
    1.2598910835e-03    1.0459972656e+04
    1.2699735817e-03    1.0145421875e+04
    1.2799359392e-03    9.8459833984e+03
    1.2899613939e-03    9.5555683594e+03
    1.2998632155e-03    9.2790273438e+03
    1.3098269701e-03    9.0106494141e+03
    1.3198534725e-03    8.7501855469e+03
    1.3299434213e-03    8.4973935547e+03
    1.3399051968e-03    8.2565996094e+03
    1.3499292545e-03    8.0227524414e+03
    1.3598200167e-03    7.7999824219e+03
    1.3699604897e-03    7.5794790039e+03
    1.3799676672e-03    7.3693842773e+03
    1.3898391044e-03    7.1691503906e+03
    1.3999777148e-03    6.9704682617e+03
    1.4099813998e-03    6.7810649414e+03
    1.4198452700e-03    6.6005131836e+03
    1.4299723553e-03    6.4212968750e+03
    1.4399583451e-03    6.2504492188e+03
    1.4497999800e-03    6.0875502930e+03
    1.4599082060e-03    5.9256860352e+03
    1.4698707964e-03    5.7713452148e+03
    1.4798943885e-03    5.6210629883e+03
    1.4899796806e-03    5.4747280273e+03
    1.4999149134e-03    5.3351674805e+03
    1.5099106822e-03    5.1991879883e+03
    1.5199672198e-03    5.0667016602e+03
    1.5298697399e-03    4.9403183594e+03
    1.5398318646e-03    4.8171040039e+03
    1.5498542925e-03    4.6969770508e+03
    1.5599378385e-03    4.5798540039e+03
    1.5698618954e-03    4.4681088867e+03
    1.5798459062e-03    4.3590927734e+03
    1.5898903366e-03    4.2527353516e+03
    1.5999958850e-03    4.1489721680e+03
    1.6099363565e-03    4.0499611816e+03
    1.6199371312e-03    3.9532998047e+03
    1.6299980925e-03    3.8589401855e+03
    1.6398897860e-03    3.7688869629e+03
    1.6498401528e-03    3.6809270020e+03
    1.6598514048e-03    3.5949941406e+03
    1.6699221451e-03    3.5110583496e+03
    1.6798174474e-03    3.4309521484e+03
    1.6897718888e-03    3.3526516113e+03
    1.6997864004e-03    3.2761149902e+03
    1.7098614480e-03    3.2013020020e+03
    1.7199974973e-03    3.1281740723e+03
    1.7299518222e-03    3.0583737793e+03
    1.7399670323e-03    2.9900969238e+03
    1.7497964436e-03    2.9249250488e+03
    1.7599309795e-03    2.8595769043e+03
    1.7698791344e-03    2.7971926270e+03
    1.7798859626e-03    2.7361447754e+03
    1.7899541417e-03    2.6763920898e+03
    1.7998288386e-03    2.6193623047e+03
    1.8097624416e-03    2.5635144043e+03
    1.8197559984e-03    2.5088222656e+03
    1.8298098585e-03    2.4552631836e+03
    1.8399246037e-03    2.4028127441e+03
    1.8498393474e-03    2.3527504883e+03
    1.8598135794e-03    2.3036962891e+03
    1.8698478816e-03    2.2556291504e+03
    1.8799431855e-03    2.2085283203e+03
    1.8898324342e-03    2.1635744629e+03
    1.8997805892e-03    2.1195004883e+03
    1.9097885815e-03    2.0762880859e+03
    1.9198576920e-03    2.0339171143e+03
    1.9299880369e-03    1.9923743896e+03
    1.9399045268e-03    1.9527301025e+03
    1.9498809706e-03    1.9138375244e+03
    1.9599176012e-03    1.8756822510e+03
    1.9697342068e-03    1.8392786865e+03
    1.9798928406e-03    1.8025328369e+03
    1.9898295868e-03    1.7674737549e+03
    1.9998266362e-03    1.7330585938e+03
    2.0098846871e-03    1.6992750244e+03
    2.0197147969e-03    1.6670499268e+03
    2.0298887976e-03    1.6344969482e+03
    2.0398320630e-03    1.6034483643e+03
    2.0498347003e-03    1.5729554443e+03
    2.0598985720e-03    1.5430042725e+03
    2.0697345026e-03    1.5144193115e+03
    2.0799313206e-03    1.4854808350e+03
    2.0898899529e-03    1.4578831787e+03
    2.0999095868e-03    1.4307611084e+03
    2.1099913865e-03    1.4041049805e+03
    2.1198280156e-03    1.3786939697e+03
    2.1297244821e-03    1.3537065430e+03
    2.1399939433e-03    1.3283736572e+03
    2.1497008856e-03    1.3049722900e+03
    2.1597826853e-03    1.2812109375e+03
    2.1699278150e-03    1.2578443604e+03
    2.1798172966e-03    1.2355778809e+03
    2.1897682454e-03    1.2136693115e+03
    2.1997811273e-03    1.1921129150e+03
    2.2098573390e-03    1.1709028320e+03
    2.2199975792e-03    1.1500325928e+03
    2.2298721597e-03    1.1301545410e+03
    2.2398086730e-03    1.1105848389e+03
    2.2498068865e-03    1.0913194580e+03
    2.2598630749e-03    1.0723638916e+03
    2.2699900437e-03    1.0536895752e+03
    2.2798415739e-03    1.0359119873e+03
    2.2897552699e-03    1.0184003296e+03
    2.2997318301e-03    1.0011504517e+03
    2.3097724188e-03    9.8415802002e+02
    2.3198777344e-03    9.6741918945e+02
    2.3296971340e-03    9.5149438477e+02
    2.3399330676e-03    9.3524237061e+02
    2.3498805240e-03    9.1978045654e+02
    2.3598922417e-03    9.0454052734e+02
    2.3699689191e-03    8.8951971436e+02
    2.3797487374e-03    8.7523944092e+02
    2.3899571970e-03    8.6063885498e+02
    2.3998655379e-03    8.4675775146e+02
    2.4098383728e-03    8.3306860352e+02
    2.4198715109e-03    8.1957568359e+02
    2.4299770594e-03    8.0626141357e+02
    2.4397720117e-03    7.9361352539e+02
    2.4496312253e-03    7.8113348389e+02
    2.4599381723e-03    7.6834838867e+02
    2.4699305650e-03    7.5620294189e+02
    2.4799900129e-03    7.4421820068e+02
    2.4897267576e-03    7.3284375000e+02
    2.4999210145e-03    7.2116766357e+02
    2.5097897742e-03    7.1008587646e+02
    2.5197246578e-03    6.9914471436e+02
    2.5297270622e-03    6.8834210205e+02
    2.5397976860e-03    6.7767614746e+02
    2.5499376934e-03    6.6714532471e+02
    2.5597347412e-03    6.5716528320e+02
    2.5696028024e-03    6.4730157471e+02
    2.5799535215e-03    6.3715362549e+02
    2.5899608154e-03    6.2753192139e+02
    2.5996167678e-03    6.1842004395e+02
    2.6097621303e-03    6.0902435303e+02
    2.6199801359e-03    5.9974182129e+02
    2.6298414450e-03    5.9095074463e+02
    2.6397707406e-03    5.8226220703e+02
    2.6497538202e-03    5.7368750000e+02
    2.6597774122e-03    5.6523632812e+02
    2.6698331349e-03    5.5691510010e+02
    2.6799233165e-03    5.4871948242e+02
    2.6895971969e-03    5.4100177002e+02
    2.6997323148e-03    5.3305413818e+02
    2.7098769788e-03    5.2524053955e+02
    2.7196074370e-03    5.1789056396e+02
    2.7298186906e-03    5.1034036255e+02
    2.7399905957e-03    5.0290634155e+02
    2.7497564442e-03    4.9593148804e+02
    2.7599593159e-03    4.8875427246e+02
    2.7697277255e-03    4.8201974487e+02
    2.7799303643e-03    4.7509106445e+02
    2.7897150721e-03    4.6860305786e+02
    2.7999049053e-03    4.6192187500e+02
    2.8096369933e-03    4.5564685059e+02
    2.8198319487e-03    4.4920553589e+02
    2.8295943048e-03    4.4315444946e+02
    2.8397876304e-03    4.3692977905e+02
    2.8499567416e-03    4.3082901001e+02
    2.8597158380e-03    4.2508126831e+02
    2.8698779643e-03    4.1918734741e+02
    2.8796137776e-03    4.1364340210e+02
    2.8898129240e-03    4.0795077515e+02
    2.8999762144e-03    4.0235009766e+02
    2.9096724465e-03    3.9709912109e+02
    2.9198715929e-03    3.9169741821e+02
    2.9296458233e-03    3.8656848145e+02
    2.9398654588e-03    3.8132669067e+02
    2.9495647177e-03    3.7640567017e+02
    2.9597084504e-03    3.7136914062e+02
    2.9698451981e-03    3.6641757202e+02
    2.9796096496e-03    3.6170901489e+02
    2.9897899367e-03    3.5689602661e+02
    2.9995816294e-03    3.5234606934e+02
    3.0098219868e-03    3.4765737915e+02
    3.0196162406e-03    3.4323806763e+02
    3.0298766214e-03    3.3869375610e+02
    3.0397227965e-03    3.3440692139e+02
    3.0495855026e-03    3.3018313599e+02
    3.0598810408e-03    3.2583407593e+02
    3.0697565526e-03    3.2173666382e+02
    3.0796539504e-03    3.1769564819e+02
    3.0899906997e-03    3.1353347778e+02
    3.0999009032e-03    3.0961395264e+02
    3.1098113395e-03    3.0575607300e+02
    3.1197310891e-03    3.0195602417e+02
    3.1296575908e-03    2.9821554565e+02
    3.1395717524e-03    2.9453558350e+02
    3.1499101315e-03    2.9074847412e+02
    3.1598047353e-03    2.8719232178e+02
    3.1696858350e-03    2.8369262695e+02
    3.1799827702e-03    2.8009793091e+02
    3.1898163725e-03    2.7672256470e+02
    3.1996234320e-03    2.7340600586e+02
    3.2098416705e-03    2.7000173950e+02
    3.2195856329e-03    2.6680603027e+02
    3.2297282014e-03    2.6352935791e+02
    3.2398193143e-03    2.6031939697e+02
    3.2498522196e-03    2.5717657471e+02
    3.2598266844e-03    2.5409922791e+02
    3.2697436400e-03    2.5108528137e+02
    3.2796012238e-03    2.4813385010e+02
    3.2898283098e-03    2.4511791992e+02
    3.2999969553e-03    2.4216462708e+02
    3.3096859697e-03    2.3939216614e+02
    3.3197384328e-03    2.3655778503e+02
    3.3297324553e-03    2.3378155518e+02
    3.3396689687e-03    2.3106188965e+02
    3.3499565907e-03    2.2828773499e+02
    3.3597771544e-03    2.2567883301e+02
    3.3699476626e-03    2.2301622009e+02
    3.3796548378e-03    2.2051161194e+02
    3.3897084650e-03    2.1795484924e+02
    3.3997031860e-03    2.1544987488e+02
    3.4096399322e-03    2.1299530029e+02
    3.4199114889e-03    2.1049475098e+02
    3.4297304228e-03    2.0813903809e+02
    3.4398832358e-03    2.0573789978e+02
    3.4499752801e-03    2.0338554382e+02
    3.4596230835e-03    2.0116831970e+02
    3.4699805547e-03    1.9882170105e+02
    3.4798947163e-03    1.9660771179e+02
    3.4897506703e-03    1.9443742371e+02
    3.4999218769e-03    1.9222917175e+02
    3.5096607171e-03    1.9014433289e+02
    3.5197136458e-03    1.8802201843e+02
    3.5297060385e-03    1.8594190979e+02
    3.5396381281e-03    1.8390296936e+02
    3.5498747602e-03    1.8183087158e+02
    3.5596808884e-03    1.7987336731e+02
    3.5697931889e-03    1.7788252258e+02
    3.5798426252e-03    1.7593144226e+02
    3.5898294300e-03    1.7401908875e+02
    3.5997545347e-03    1.7214436340e+02
    3.6099692807e-03    1.7024147034e+02
    3.6197674926e-03    1.6844081116e+02
    3.6298530176e-03    2.5034095703e+04
    3.6398747470e-03    2.5538572266e+04
    3.6498324480e-03    2.6032884766e+04
    3.6597261205e-03    2.6518181641e+04
    3.6698945332e-03    2.7011919922e+04
    3.6799956579e-03    2.7496849609e+04
    3.6896960810e-03    2.7957460938e+04
    3.6999965087e-03    2.8441310547e+04
    3.7098967005e-03    2.8901462891e+04
    3.7197312340e-03    2.9354208984e+04
    3.7298244424e-03    2.9814927734e+04
    3.7398478016e-03    3.0268837891e+04
    3.7498020101e-03    3.0716015625e+04
    3.7596866023e-03    3.1156447266e+04
    3.7698177621e-03    3.1604228516e+04
    3.7798753474e-03    3.2045576172e+04
    3.7898607552e-03    3.2481216797e+04
    3.7997728214e-03    3.2911718750e+04
    3.8099188823e-03    3.3350558594e+04
    3.8199883420e-03    3.3784304688e+04
    3.8299809676e-03    3.4213199219e+04
    3.8398967590e-03    3.4637671875e+04
    3.8497364148e-03    3.5058074219e+04
    3.8597944658e-03    3.5487121094e+04
    3.8697717246e-03    3.5912179688e+04
    3.8799580652e-03    3.6345921875e+04
    3.8897718769e-03    3.6763796875e+04
    3.8997898810e-03    3.7190371094e+04
    3.9097219706e-03    3.7613109375e+04
    3.9198491722e-03    3.8043835938e+04
    3.9298860356e-03    3.8470527344e+04
    3.9398320951e-03    3.8893394531e+04
    3.9499602281e-03    3.9324109375e+04
    3.9599924348e-03    3.9750800781e+04
    3.9699282497e-03    4.0173406250e+04
    3.9797672071e-03    4.0591949219e+04
    3.9897719398e-03    4.1017585938e+04
    3.9999336004e-03    4.1449941406e+04
    4.0099867620e-03    4.1877726562e+04
    4.0199314244e-03    4.2301000000e+04
    4.0297657251e-03    4.2719753906e+04
    4.0399860591e-03    4.3155039062e+04
    4.0498389862e-03    4.3574824219e+04
    4.0598167107e-03    4.4000109375e+04
    4.0699085221e-03    4.4430574219e+04
    4.0798680857e-03    4.4855792969e+04
    4.0899268351e-03    4.5285453125e+04
    4.0998444892e-03    4.5708949219e+04
    4.1098450311e-03    4.6135683594e+04
    4.1199154221e-03    4.6565519531e+04
    4.1298246942e-03    4.6989175781e+04
    4.1397851892e-03    4.7415906250e+04
    4.1499929503e-03    4.7853800781e+04
    4.1598007083e-03    4.8274488281e+04
    4.1698236018e-03    4.8704199219e+04
    4.1798329912e-03    4.9133480469e+04
    4.1898097843e-03    4.9561890625e+04
    4.1999211535e-03    4.9996761719e+04
    4.2099435814e-03    5.0428457031e+04
    4.2198514566e-03    5.0855667969e+04
    4.2299549095e-03    5.1291656250e+04
    4.2398506775e-03    5.1719003906e+04
    4.2499643750e-03    5.2156285156e+04
    4.2598713189e-03    5.2585285156e+04
    4.2698811740e-03    5.3019457031e+04
    4.2799995281e-03    5.3458964844e+04
    4.2899781838e-03    5.3893207031e+04
    4.2999773286e-03    5.4329558594e+04
    4.3099755421e-03    5.4759746094e+04
    4.3199150823e-03    5.5191613281e+04
    4.3298657984e-03    5.5625105469e+04
    4.3399375863e-03    5.6064667969e+04
    4.3499823660e-03    5.6502406250e+04
    4.3599684723e-03    5.6938300781e+04
    4.3699480593e-03    5.7374917969e+04
    4.3799215928e-03    5.7812324219e+04
    4.3899263255e-03    5.8251781250e+04
    4.3998826295e-03    5.8690464844e+04
    4.4098468497e-03    5.9128785156e+04
    4.4198837131e-03    5.9571015625e+04
    4.4298903085e-03    6.0013113281e+04
    4.4398307800e-03    6.0453625000e+04
    4.4498713687e-03    6.0898105469e+04
    4.4599999674e-03    6.1347546875e+04
    4.4698659331e-03    6.1785839844e+04
    4.4799884781e-03    6.2236375000e+04
    4.4898232445e-03    6.2675316406e+04
    4.4999155216e-03    6.3126574219e+04
    4.5098871924e-03    6.3573390625e+04
    4.5199287124e-03    6.4023550781e+04
    4.5298403129e-03    6.4468699219e+04
    4.5398129150e-03    6.4918171875e+04
    4.5498409308e-03    6.5370128906e+04
    4.5599304140e-03    6.5827046875e+04
    4.5698671602e-03    6.6277015625e+04
    4.5798751526e-03    6.6731273438e+04
    4.5899120159e-03    6.7188593750e+04
    4.5998133719e-03    6.7639539062e+04
    4.6099582687e-03    6.8103109375e+04
    4.6199443750e-03    6.8560718750e+04
    4.6299765818e-03    6.9021343750e+04
    4.6398481354e-03    6.9474828125e+04
    4.6499804594e-03    6.9941835938e+04
    4.6599227935e-03    7.0401320312e+04
    4.6699326485e-03    7.0865398438e+04
    4.6799504198e-03    7.1329937500e+04
    4.6898503788e-03    7.1790140625e+04
    4.6999407932e-03    7.2260593750e+04
    4.7099059448e-03    7.2726632812e+04
    4.7198729590e-03    7.3194828125e+04
    4.7298907302e-03    7.3666515625e+04
    4.7399424948e-03    7.4141109375e+04
    4.7498093918e-03    7.4606726562e+04
    4.7599622048e-03    7.5085921875e+04
    4.7698686831e-03    7.5555125000e+04
    4.7798971646e-03    7.6032625000e+04
    4.7898651101e-03    7.6509828125e+04
    4.7999373637e-03    7.6993953125e+04
    4.8099989071e-03    7.7478335938e+04
    4.8198830336e-03    7.7954734375e+04
    4.8298332840e-03    7.8435359375e+04
    4.8399749212e-03    7.8926421875e+04
    4.8499898985e-03    7.9413343750e+04
    4.8599992879e-03    7.9900335938e+04
    4.8698484898e-03    8.0382179688e+04
    4.8799421638e-03    8.0877296875e+04
    4.8898374662e-03    8.1365468750e+04
    4.8997886479e-03    8.1857804688e+04
    4.9099619500e-03    8.2362828125e+04
    4.9199694768e-03    8.2860914062e+04
    4.9299895763e-03    8.3360515625e+04
    4.9398317933e-03    8.3852968750e+04
    4.9499110319e-03    8.4359320312e+04
    4.9598049372e-03    8.4858710938e+04
    4.9699409865e-03    8.5372679688e+04
    4.9798861146e-03    8.5878640625e+04
    4.9898475409e-03    8.6387023438e+04
    4.9998457544e-03    8.6898304688e+04
    5.0098546781e-03    8.7412976562e+04
    5.0199003890e-03    8.7931117188e+04
    5.0299586728e-03    8.8453218750e+04
    5.0398213789e-03    8.8966132812e+04
    5.0499271601e-03    8.9494710938e+04
    5.0598308444e-03    9.0014335938e+04
    5.0699813291e-03    9.0549867188e+04
    5.0799190067e-03    9.1076312500e+04
    5.0898855552e-03    9.1606093750e+04
    5.0998642109e-03    9.2139914062e+04
    5.1098633558e-03    9.2676242188e+04
    5.1198834553e-03    9.3215843750e+04
    5.1299161278e-03    9.3759414062e+04
    5.1399702206e-03    9.4308789062e+04
    5.1498096436e-03    9.4847820312e+04
    5.1598958671e-03    9.5396929688e+04
    5.1699969918e-03    9.5952382812e+04
    5.1798792556e-03    9.6509992188e+04
    5.1897806115e-03    9.7071335938e+04
    5.1999255084e-03    9.7631695312e+04
    5.2098459564e-03    9.8173414062e+04
    5.2197882906e-03    9.8740148438e+04
    5.2299676463e-03    9.9350101562e+04
    5.2399304695e-03    9.9938210938e+04
    5.2499035373e-03    1.0049271094e+05
    5.2598849870e-03    1.0103484375e+05
    5.2698790096e-03    1.0160618750e+05
    5.2798800170e-03    1.0222314844e+05
    5.2898917347e-03    1.0285783594e+05
    5.2999039181e-03    1.0347246875e+05
    5.3099286743e-03    1.0405975000e+05
    5.3199562244e-03    1.0463442969e+05
    5.3299888968e-03    1.0521571094e+05
    5.3397901356e-03    1.0580089844e+05
    5.3498265333e-03    1.0642010156e+05
    5.3598629311e-03    1.0705682031e+05
    5.3699002601e-03    1.0770699219e+05
    5.3799375892e-03    1.0836194531e+05
    5.3899753839e-03    1.0901028906e+05
    5.3997803479e-03    1.0963339844e+05
    5.4098186083e-03    1.1026793750e+05
    5.4198573343e-03    1.1090928906e+05
    5.4298960604e-03    1.1156207031e+05
    5.4399347864e-03    1.1222428125e+05
    5.4499735124e-03    1.1289287500e+05
    5.4597784765e-03    1.1355153906e+05
    5.4698167369e-03    1.1423205469e+05
    5.4798545316e-03    1.1491834375e+05
    5.4898918606e-03    1.1561014844e+05
    5.4999287240e-03    1.1630825000e+05
    5.5099651217e-03    1.1701336719e+05
    5.5197677575e-03    1.1770885156e+05
    5.5298032239e-03    1.1842796875e+05
    5.5398382246e-03    1.1915556250e+05
    5.5498727597e-03    1.1989409375e+05
    5.5599068291e-03    1.2064612500e+05
    5.5699390359e-03    1.2141297656e+05
    5.5799703114e-03    1.2219252344e+05
    5.5897701532e-03    1.2296093750e+05
    5.5998004973e-03    1.2374694531e+05
    5.6098261848e-03    1.2452775000e+05
    5.6198574603e-03    1.2531096875e+05
    5.6298924610e-03    1.2610882031e+05
    5.6399172172e-03    1.2692846875e+05
    5.6499466300e-03    1.2777191406e+05
    5.6599937379e-03    1.2863467969e+05
    5.6698010303e-03    1.2948958594e+05
    5.6798444130e-03    1.3037871094e+05
    5.6899059564e-03    1.3128095312e+05
    5.6999716908e-03    1.3218709375e+05
    5.7098041289e-03    1.5092237500e+05
    5.7198842987e-03    3.2135046875e+05
    5.7299751788e-03    3.1853815625e+05
    5.7398285717e-03    3.1589687500e+05
    5.7499287650e-03    3.1325159375e+05
    5.7598087005e-03    3.1072496875e+05
    5.7699242607e-03    3.0817353125e+05
    5.7798088528e-03    3.0570362500e+05
    5.7899444364e-03    3.0322300000e+05
    5.7998527773e-03    3.0086259375e+05
    5.8099948801e-03    2.9851812500e+05
    5.8199129999e-03    2.9628868750e+05
    5.8298422955e-03    2.9410325000e+05
    5.8397771791e-03    2.9194693750e+05
    5.8499495499e-03    2.8976528125e+05
    5.8598974720e-03    2.8766950000e+05
    5.8698537759e-03    2.8562556250e+05
    5.8798165992e-03    2.8364290625e+05
    5.8897836134e-03    2.8171153125e+05
    5.8999937028e-03    2.7975978125e+05
    5.9099770151e-03    2.7787009375e+05
    5.9199668467e-03    2.7600771875e+05
    5.9299627319e-03    2.7419331250e+05
    5.9399618767e-03    2.7243528125e+05
    5.9499721974e-03    2.7071662500e+05
    5.9599890374e-03    2.6901643750e+05
    5.9697730467e-03    2.6737284375e+05
    5.9797978029e-03    2.6571840625e+05
    5.9898323379e-03    2.6411078125e+05
    5.9998757206e-03    2.6254500000e+05
    6.0099214315e-03    2.6100542188e+05
    6.0199741274e-03    2.5947770312e+05
    6.0297925957e-03    2.5800682812e+05
    6.0398629867e-03    2.5654679688e+05
    6.0499319807e-03    2.5512139062e+05
    6.0597676784e-03    2.5375337500e+05
    6.0698478483e-03    2.5236257812e+05
    6.0799377970e-03    2.5099493750e+05
    6.0897907242e-03    2.4969532812e+05
    6.0998867266e-03    2.4839723438e+05
    6.1099943705e-03    2.4711582812e+05
    6.1198659241e-03    2.4587943750e+05
    6.1299898662e-03    2.4463860938e+05
    6.1398670077e-03    2.4345820312e+05
    6.1499970034e-03    2.4226945312e+05
    6.1598885804e-03    2.4112307812e+05
    6.1697885394e-03    2.3999620312e+05
    6.1799287796e-03    2.3887157812e+05
    6.1898301356e-03    2.3779545312e+05
    6.1999880709e-03    2.3670714062e+05
    6.2099033967e-03    2.3566010938e+05
    6.2198294327e-03    2.3463804688e+05
    6.2299906276e-03    2.3361417188e+05
    6.2399273738e-03    2.3262798438e+05
    6.2498655170e-03    2.3165657812e+05
    6.2598101795e-03    2.3070606250e+05
    6.2699997798e-03    2.2975300000e+05
    6.2799472362e-03    2.2883710938e+05
    6.2899100594e-03    2.2793689062e+05
    6.2998649664e-03    2.2705407812e+05
    6.3098352402e-03    2.2618904688e+05
    6.3197971322e-03    2.2533964062e+05
    6.3297734596e-03    2.2450293750e+05
    6.3399956562e-03    2.2366381250e+05
    6.3499743119e-03    2.2286187500e+05
    6.3599669375e-03    2.2207142188e+05
    6.3699535094e-03    2.2129731250e+05
    6.3799591735e-03    2.2053767188e+05
    6.3899508677e-03    2.1979326562e+05
    6.3999602571e-03    2.1905982812e+05
    6.4099649899e-03    2.1834179688e+05
    6.4199785702e-03    2.1763725000e+05
    6.4299968071e-03    2.1694698438e+05
    6.4397677779e-03    2.1628554688e+05
    6.4497999847e-03    2.1562064062e+05
    6.4598238096e-03    2.1496589062e+05
    6.4698602073e-03    2.1432379688e+05
    6.4798910171e-03    2.1369600000e+05
    6.4899297431e-03    2.1308514062e+05
    6.4999773167e-03    2.1249192188e+05
    6.5097762272e-03    2.1192387500e+05
    6.5198303200e-03    2.1134982812e+05
    6.5298764966e-03    2.1077837500e+05
    6.5399371088e-03    2.1021060938e+05
    6.5499967895e-03    2.0965254688e+05
    6.5598166548e-03    2.0912089062e+05
    6.5698833205e-03    2.0858951562e+05
    6.5799499862e-03    2.0807706250e+05
    6.5897805616e-03    2.0758892188e+05
    6.5998574719e-03    2.0709632812e+05
    6.6099418327e-03    2.0660826562e+05
    6.6197752021e-03    2.0613792188e+05
    6.6298577003e-03    2.0565942188e+05
    6.6399457864e-03    2.0518450000e+05
    6.6497968510e-03    2.0472406250e+05
    6.6599040292e-03    2.0425635938e+05
    6.6697648726e-03    2.0380317188e+05
    6.6798706539e-03    2.0333964062e+05
    6.6899703816e-03    2.0287593750e+05
    6.6998247057e-03    2.0242189062e+05
    6.7099346779e-03    2.0195292188e+05
    6.7198043689e-03    2.0149120312e+05
    6.7299194634e-03    2.0101400000e+05
    6.7397849634e-03    2.0054226562e+05
    6.7498958670e-03    2.0005351562e+05
    6.7597585730e-03    1.9957179688e+05
    6.7698657513e-03    1.9907537500e+05
    6.7799775861e-03    1.9857787500e+05
    6.7898537964e-03    1.9809454688e+05
    6.7999777384e-03    1.9760500000e+05
    6.8098525517e-03    1.9712570312e+05
    6.8199718371e-03    1.9663610938e+05
    6.8298429251e-03    1.9615092188e+05
    6.8399603479e-03    1.9564873438e+05
    6.8498305045e-03    1.9515239062e+05
    6.8599469960e-03    1.9464337500e+05
    6.8698185496e-03    1.9414981250e+05
    6.8799392320e-03    1.9365179688e+05
    6.8898163736e-03    1.9317312500e+05
    6.8999426439e-03    1.9268667188e+05
    6.9098221138e-03    1.9221157812e+05
    6.9199479185e-03    1.9172070312e+05
    6.9298250601e-03    1.9124000000e+05
    6.9399480708e-03    1.9074993750e+05
    6.9498238154e-03    1.9027732812e+05
    6.9599458948e-03    1.8979864062e+05
    6.9698216394e-03    1.8933632812e+05
    6.9799441844e-03    1.8886317188e+05
    6.9898199290e-03    1.8840139062e+05
    6.9999424741e-03    1.8793045312e+05
    7.0098172873e-03    1.8747481250e+05
    7.0199393667e-03    1.8701098438e+05
    7.0298141800e-03    1.8656132812e+05
    7.0399353281e-03    1.8610435938e+05
    7.0498096757e-03    1.8566301562e+05
    7.0599303581e-03    1.8521129688e+05
    7.0698037744e-03    1.8477035938e+05
    7.0799239911e-03    1.8432689062e+05
    7.0897974074e-03    1.8389587500e+05
    7.0999171585e-03    1.8345279688e+05
    7.1097901091e-03    1.8302604688e+05
    7.1199093945e-03    1.8259093750e+05
    7.1297823451e-03    1.8217007812e+05
    7.1399030276e-03    1.8174032812e+05
    7.1497778408e-03    1.8132657812e+05
    7.1599003859e-03    1.8090293750e+05
    7.1697756648e-03    1.8049270312e+05
    7.1798963472e-03    1.8007612500e+05
    7.1897692978e-03    1.7967006250e+05
    7.1998876520e-03    1.7925756250e+05
    7.2097587399e-03    1.7885757812e+05
    7.2198766284e-03    1.7844917188e+05
    7.2299945168e-03    1.7804575000e+05
    7.2398674674e-03    1.7765268750e+05
    7.2499895468e-03    1.7725457812e+05
    7.2598662227e-03    1.7686706250e+05
    7.2699896991e-03    1.7647260938e+05
    7.2798654437e-03    1.7609001562e+05
    7.2899879888e-03    1.7569982812e+05
    7.2998623364e-03    1.7532251562e+05
    7.3099820875e-03    1.7493735938e+05
    7.3198550381e-03    1.7456434375e+05
    7.3299733922e-03    1.7418342188e+05
    7.3398472741e-03    1.7381601562e+05
    7.3499740101e-03    1.7344010938e+05
    7.3598548770e-03    1.7307584375e+05
    7.3699806817e-03    1.7270426562e+05
    7.3798587546e-03    1.7234493750e+05
    7.3899831623e-03    1.7197932812e+05
    7.3998607695e-03    1.7162450000e+05
    7.4099875055e-03    1.7126346875e+05
    7.4198716320e-03    1.7091259375e+05
    7.4297552928e-03    1.7056392188e+05
    7.4398848228e-03    1.7020789062e+05
    7.4497666210e-03    1.6986218750e+05
    7.4598947540e-03    1.6950945312e+05
    7.4697770178e-03    1.6916685938e+05
    7.4799102731e-03    1.6881809375e+05
    7.4897967279e-03    1.6848062500e+05
    7.4999290518e-03    1.6813787500e+05
    7.5098131783e-03    1.6780539062e+05
    7.5199441053e-03    1.6746676562e+05
    7.5298314914e-03    1.6713673438e+05
    7.5399684720e-03    1.6679940625e+05
    7.5498567894e-03    1.6647106250e+05
    7.5599919073e-03    1.6613625000e+05
    7.5698788278e-03    1.6581182812e+05
    7.5797680765e-03    1.6548907812e+05
    7.5899069197e-03    1.6516034375e+05
    7.5997970998e-03    1.6484037500e+05
    7.6099345461e-03    1.6451426562e+05
    7.6198233292e-03    1.6419837500e+05
    7.6299626380e-03    1.6387660938e+05
    7.6398556121e-03    1.6356396875e+05
    7.6499949209e-03    1.6324562500e+05
    7.6598864980e-03    1.6293712500e+05
    7.6697785407e-03    1.6263015625e+05
    7.6799192466e-03    1.6231582812e+05
    7.6898131520e-03    1.6201056250e+05
    7.6999538578e-03    1.6169823438e+05
    7.7098468319e-03    1.6139451562e+05
    7.7199880034e-03    1.6108446875e+05
    7.7298823744e-03    1.6078379688e+05
    7.7397758141e-03    1.6048460938e+05
    7.7499165200e-03    1.6017971875e+05
    7.7598104253e-03    1.5988329688e+05
    7.7699520625e-03    1.5958064062e+05
    7.7798459679e-03    1.5928618750e+05
    7.7899866737e-03    1.5898540625e+05
    7.7998805791e-03    1.5869323438e+05
    7.8097744845e-03    1.5840176562e+05
    7.8199151903e-03    1.5810467188e+05
    7.8298095614e-03    1.5781546875e+05
    7.8399498016e-03    1.5752107812e+05
    7.8498432413e-03    1.5723400000e+05
    7.8599844128e-03    1.5694148438e+05
    7.8698769212e-03    1.5665754688e+05
    7.8797703609e-03    1.5637331250e+05
    7.8899106011e-03    1.5608367188e+05
    7.8998031095e-03    1.5580170312e+05
    7.9099424183e-03    1.5551356250e+05
    7.9198349267e-03    1.5523281250e+05
    7.9299751669e-03    1.5494584375e+05
    7.9398667440e-03    1.5466489062e+05
    7.9497592524e-03    1.5438729688e+05
    7.9598985612e-03    1.5410262500e+05
    7.9697910696e-03    1.5382573438e+05
    7.9799294472e-03    1.5354385938e+05
    7.9898210242e-03    1.5326832812e+05
    7.9999612644e-03    1.5298679688e+05
    8.0098537728e-03    1.5271270312e+05
    8.0199930817e-03    1.5243243750e+05
    8.0298846588e-03    1.5215953125e+05
    8.0397780985e-03    1.5188542188e+05
    8.0499211326e-03    1.5160500000e+05
    8.0598192289e-03    1.5133467188e+05
    8.0699669197e-03    1.5106287500e+05
    8.0798668787e-03    1.5079917188e+05
    8.0897659063e-03    1.5052984375e+05
    8.0999126658e-03    1.5024603125e+05
    8.1098107621e-03    1.4996856250e+05
    8.1199556589e-03    1.4969581250e+05
    8.1298537552e-03    1.4944354688e+05
    8.1399986520e-03    1.4918909375e+05
    8.1498986110e-03    1.4892478125e+05
    8.1597985700e-03    1.4863650000e+05
    8.1699471921e-03    1.4833310938e+05
    8.1798471510e-03    1.4805412500e+05
    8.1899939105e-03    1.4779714062e+05
    8.1998938695e-03    1.4756939062e+05
    8.2097928971e-03    1.4734771875e+05
    8.2199405879e-03    1.4709828125e+05
    8.2298396155e-03    1.4681653125e+05
    8.2399863750e-03    1.4650789062e+05
    8.2498844713e-03    1.4621698438e+05
    8.2597834989e-03    1.4594104688e+05
    8.2699293271e-03    1.4567778125e+05
    8.2798274234e-03    1.4543607812e+05
    8.2899732515e-03    1.4519735938e+05
    8.2998704165e-03    1.4496825000e+05
    8.3097675815e-03    1.4473487500e+05
    8.3199124783e-03    1.4448662500e+05
    8.3298096433e-03    1.4423443750e+05
    8.3399554715e-03    1.4396435938e+05
    8.3498544991e-03    1.4369275000e+05
    8.3597572520e-03    1.4341798438e+05
    8.3699086681e-03    1.4314040625e+05
    8.3798142150e-03    1.4287882812e+05
    8.3899665624e-03    1.4262115625e+05
    8.3998702466e-03    1.4237725000e+05
    8.4097739309e-03    1.4213565625e+05
    8.4199244156e-03    1.4188593750e+05
    8.4298262373e-03    1.4163962500e+05
    8.4399767220e-03    1.4138551562e+05
    8.4498813376e-03    1.4113782812e+05
    8.4597859532e-03    1.4089085938e+05
    8.4699383005e-03    1.4063798438e+05
    8.4798429161e-03    1.4039143750e+05
    8.4899952635e-03    1.4014001562e+05
    8.4998989478e-03    1.3989657812e+05
    8.5098026320e-03    1.3965412500e+05
    8.5199540481e-03    1.3940585938e+05
    8.5298577324e-03    1.3916439062e+05
    8.5397614166e-03    1.3892454688e+05
    8.5499128327e-03    1.3868029688e+05
    8.5598155856e-03    1.3844264062e+05
    8.5699660704e-03    1.3819870312e+05
    8.5798678920e-03    1.3795823438e+05
    8.5897706449e-03    1.3771275000e+05
    8.5999211296e-03    1.3745531250e+05
    8.6098229513e-03    1.3719898438e+05
    8.6199734360e-03    1.3693528125e+05
    8.6298752576e-03    1.3668057812e+05
    8.6397780105e-03    1.3643356250e+05
    8.6499303579e-03    1.3619062500e+05
    8.6598359048e-03    1.3596278125e+05
    8.6699882522e-03    1.3573343750e+05
    8.6798956618e-03    1.3550801562e+05
    8.6898067966e-03    1.3527693750e+05
    8.6999647319e-03    1.3503287500e+05
    8.7098758668e-03    1.3479045312e+05
    8.7197916582e-03    1.3454587500e+05
    8.7299607694e-03    1.3429371875e+05
    8.7398858741e-03    1.3404626562e+05
    8.7498137727e-03    1.3380142188e+05
    8.7599921972e-03    1.3356039062e+05
    8.7699322030e-03    1.3333703125e+05
    8.7798833847e-03    1.3311931250e+05
    8.7898382917e-03    1.3289414062e+05
    8.7997987866e-03    1.3265307812e+05
    8.8097667322e-03    1.3240112500e+05
    8.8199917227e-03    1.3214601562e+05
    8.8299755007e-03    1.3190943750e+05
    8.8399667293e-03    1.3168473438e+05
    8.8499598205e-03    1.3146384375e+05
    8.8599650189e-03    1.3123381250e+05
    8.8699767366e-03    1.3099215625e+05
    8.8799931109e-03    1.3074571875e+05
    8.8897654787e-03    1.3051062500e+05
    8.8997976854e-03    1.3027966406e+05
    8.9098364115e-03    1.3005768750e+05
    8.9198844507e-03    1.2983102344e+05
    8.9299371466e-03    1.2959268750e+05
    8.9399907738e-03    1.2934628125e+05
    8.9498059824e-03    1.2911169531e+05
    8.9598800987e-03    1.2888327344e+05
    8.9699588716e-03    1.2866132031e+05
    8.9797927067e-03    1.2843680469e+05
    8.9898798615e-03    1.2819468750e+05
    8.9999744669e-03    1.2795135156e+05
    9.0098278597e-03    1.2772346094e+05
    9.0199382976e-03    1.2749828906e+05
    9.0297972783e-03    1.2727558594e+05
    9.0399198234e-03    1.2703646094e+05
    9.0497909114e-03    1.2680089844e+05
    9.0599209070e-03    1.2656721094e+05
    9.0698106214e-03    1.2634628906e+05
    9.0799527243e-03    1.2611660156e+05
    9.0898480266e-03    1.2588234375e+05
    9.0997526422e-03    1.2564785156e+05
    9.1099115089e-03    1.2541664844e+05
    9.1198226437e-03    1.2519514844e+05
    9.1297468171e-03    1.2496746875e+05
    9.1399224475e-03    1.2472787500e+05
    9.1498540714e-03    1.2449664844e+05
    9.1597931460e-03    1.2427140625e+05
    9.1699836776e-03    1.2403846094e+05
    9.1799292713e-03    1.2380655469e+05
    9.1898841783e-03    1.2357459375e+05
    9.1998353601e-03    1.2334828125e+05
    9.2097958550e-03    1.2312147656e+05
    9.2197665945e-03    1.2288962500e+05
    9.2299897224e-03    1.2265161719e+05
    9.2399688438e-03    1.2242335156e+05
    9.2499526218e-03    1.2219607031e+05
    9.2599308118e-03    1.2196488281e+05
    9.2699229717e-03    1.2173155469e+05
    9.2799207196e-03    1.2150171875e+05
    9.2899175361e-03    1.2127352344e+05
    9.2999264598e-03    1.2104252344e+05
    9.3099381775e-03    1.2081092969e+05
    9.3199443072e-03    1.2058146094e+05
    9.3299662694e-03    1.2035153906e+05
    9.3399910256e-03    1.2011883594e+05
    9.3497578055e-03    1.1988996094e+05
    9.3597956002e-03    1.1965256250e+05
    9.3698306009e-03    1.1941541406e+05
    9.3798665330e-03    1.1917807031e+05
    9.3899182975e-03    1.1894589844e+05
    9.3999719247e-03    1.1872010156e+05
    9.4097638503e-03    1.1850264844e+05
    9.4198258594e-03    1.1827733594e+05
    9.4298860058e-03    1.1804656250e+05
    9.4399498776e-03    1.1780878906e+05
    9.4497688115e-03    1.1757216406e+05
    9.4598475844e-03    1.1732922656e+05
    9.4699244946e-03    1.1709130469e+05
    9.4797546044e-03    1.1686402344e+05
    9.4898398966e-03    1.1663390625e+05
    9.4999270514e-03    1.1640461719e+05
    9.5097683370e-03    1.1617916406e+05
    9.5198694617e-03    1.1594288281e+05
    9.5299715176e-03    1.1570185156e+05
    9.5398249105e-03    1.1546596094e+05
    9.5499390736e-03    1.1522572656e+05
    9.5597933978e-03    1.1499396875e+05
    9.5699140802e-03    1.1475734375e+05
    9.5797758549e-03    1.1452625781e+05
    9.5899039879e-03    1.1428438281e+05
    9.5997806638e-03    1.1404583594e+05
    9.6099153161e-03    1.1379857031e+05
    9.6197929233e-03    1.1355772656e+05
    9.6299368888e-03    1.1331628906e+05
    9.6398219466e-03    1.1308752344e+05
    9.6499715000e-03    1.1285515625e+05
    9.6598686650e-03    1.1262713281e+05
    9.6697676927e-03    1.1239409375e+05
    9.6799312159e-03    1.1214769531e+05
    9.6898376942e-03    1.1190085156e+05
    9.6997441724e-03    1.1165225781e+05
    9.7099160776e-03    1.1140041406e+05
    9.7198300064e-03    1.1116181250e+05
    9.7297457978e-03    1.1092896875e+05
    9.7399270162e-03    1.1069185156e+05
    9.7498567775e-03    1.1045753906e+05
    9.7597884014e-03    1.1021683594e+05
    9.7699845210e-03    1.0996522656e+05
    9.7799235955e-03    1.0972016406e+05
    9.7898645326e-03    1.0947955469e+05
    9.7998082638e-03    1.0924521875e+05
    9.8097566515e-03    1.0901464844e+05
    9.8199713975e-03    1.0877488281e+05
    9.8299290985e-03    1.0853303125e+05
    9.8398877308e-03    1.0828341406e+05
    9.8498463631e-03    1.0803022656e+05
    9.8598087206e-03    1.0777822656e+05
    9.8697720096e-03    1.0753411719e+05
    9.8797380924e-03    1.0729850000e+05
    9.8899723962e-03    1.0705850000e+05
    9.8999487236e-03    1.0682222656e+05
    9.9099287763e-03    1.0657753906e+05
    9.9199125543e-03    1.0632625781e+05
    9.9298991263e-03    1.0607349219e+05
    9.9398875609e-03    1.0582533594e+05
    9.9498797208e-03    1.0558384375e+05
    9.9598746747e-03    1.0534558594e+05
    9.9698724225e-03    1.0510489844e+05
    9.9798738956e-03    1.0485787500e+05
    9.9898800254e-03    1.0460618750e+05
    9.9998870865e-03    1.0435430469e+05
    1.0009896941e-02    1.0410644531e+05
    1.0019909590e-02    1.0386396094e+05
    1.0029924102e-02    1.0362224219e+05
    1.0039944202e-02    1.0337643750e+05
    1.0049968027e-02    1.0312581250e+05
    1.0059993714e-02    1.0287264844e+05
    1.0069760494e-02    1.0262715625e+05
    1.0079791769e-02    1.0237972656e+05
    1.0089823976e-02    1.0213832031e+05
    1.0099859908e-02    1.0189971875e+05
    1.0109902360e-02    1.0165621094e+05
    1.0119946674e-02    1.0140246094e+05
    1.0129994713e-02    1.0114347656e+05
    1.0139780119e-02    1.0088960156e+05
    1.0149831884e-02    1.0062927344e+05
    1.0159885511e-02    1.0037757031e+05
    1.0169941001e-02    1.0013593750e+05
    1.0179735720e-02    9.9905687500e+04
    1.0189800523e-02    9.9670585938e+04
    1.0199869052e-02    9.9432648438e+04
    1.0209938511e-02    9.9187398438e+04
    1.0219746269e-02    9.8940617188e+04
    1.0229823180e-02    9.8682429688e+04
    1.0239901952e-02    9.8422148438e+04
    1.0249981657e-02    9.8161617188e+04
    1.0259797797e-02    9.7910406250e+04
    1.0269884020e-02    9.7653382812e+04
    1.0279973038e-02    9.7398945312e+04
    1.0289798491e-02    9.7153343750e+04
    1.0299894027e-02    9.6902242188e+04
    1.0309993289e-02    9.6654226562e+04
    1.0319828056e-02    9.6414039062e+04
    1.0329931043e-02    9.6168281250e+04
    1.0339769535e-02    9.5928742188e+04
    1.0349876247e-02    9.5680351562e+04
    1.0359987617e-02    9.5430351562e+04
    1.0369834490e-02    9.5184843750e+04
    1.0379950516e-02    9.4932156250e+04
    1.0389803909e-02    9.4686476562e+04
    1.0399926454e-02    9.4436031250e+04
    1.0409782641e-02    9.4193085938e+04
    1.0419907048e-02    9.3942992188e+04
    1.0429770686e-02    9.3699101562e+04
    1.0439903475e-02    9.3447835938e+04
    1.0449768975e-02    9.3203101562e+04
    1.0459902696e-02    9.2951585938e+04
    1.0469774716e-02    9.2707093750e+04
    1.0479917750e-02    9.2455460938e+04
    1.0489794426e-02    9.2210273438e+04
    1.0499943048e-02    9.1958226562e+04
    1.0509829037e-02    9.1713054688e+04
    1.0519984178e-02    9.1461914062e+04
    1.0529871099e-02    9.1217539062e+04
    1.0539760813e-02    9.0972531250e+04
    1.0549919680e-02    9.0719812500e+04
    1.0559815913e-02    9.0472835938e+04
    1.0569982231e-02    9.0218539062e+04
    1.0579882190e-02    8.9971351562e+04
    1.0589787737e-02    8.9725812500e+04
    1.0599964298e-02    8.9476398438e+04
    1.0609872639e-02    8.9236304688e+04
    1.0619781911e-02    8.8998148438e+04
    1.0629963130e-02    8.8753937500e+04
    1.0639879853e-02    8.8514648438e+04
    1.0649799369e-02    8.8272085938e+04
    1.0659988970e-02    8.8018398438e+04
    1.0669915006e-02    8.7766726562e+04
    1.0679843836e-02    8.7511695312e+04
    1.0689772666e-02    8.7255406250e+04
    1.0699970648e-02    8.6992085938e+04
    1.0709905066e-02    8.6735765625e+04
    1.0719846003e-02    8.6479765625e+04
    1.0729787871e-02    8.6224031250e+04
    1.0739730671e-02    8.5968289062e+04
    1.0749948211e-02    8.5705625000e+04
    1.0759897530e-02    8.5450507812e+04
    1.0769845918e-02    8.5196757812e+04
    1.0779797100e-02    8.4944882812e+04
    1.0789753869e-02    8.4695187500e+04
    1.0799984448e-02    8.4439867188e+04
    1.0809947737e-02    8.4191171875e+04
    1.0819912888e-02    8.3940882812e+04
    1.0829880834e-02    8.3688421875e+04
    1.0839853436e-02    8.3434046875e+04
    1.0849825107e-02    8.3179117188e+04
    1.0859798640e-02    8.2925445312e+04
    1.0869777761e-02    8.2674656250e+04
    1.0879763402e-02    8.2427546875e+04
    1.0889748111e-02    8.2184023438e+04
    1.0899733752e-02    8.1942828125e+04
    1.0909995064e-02    8.1695820312e+04
    1.0919990018e-02    8.1454328125e+04
    1.0929986835e-02    8.1210890625e+04
    1.0939984582e-02    8.0966093750e+04
    1.0949987918e-02    8.0720765625e+04
    1.0959995911e-02    8.0475656250e+04
    1.0969733819e-02    8.0239304688e+04
    1.0979739018e-02    7.9999554688e+04
    1.0989748873e-02    7.9762460938e+04
    1.0999767110e-02    7.9526812500e+04
    1.1009787209e-02    7.9288953125e+04
    1.1019813828e-02    7.9041351562e+04
    1.1029847898e-02    7.8775273438e+04
    1.1039889418e-02    7.8479570312e+04
    1.1049932800e-02    7.8144312500e+04
    1.1059974320e-02    7.7768703125e+04
    1.1069743894e-02    7.7368242188e+04
    1.1079784483e-02    7.6928179688e+04
    1.1089822277e-02    7.6468437500e+04
    1.1099860072e-02    7.5994804688e+04
    1.1109898798e-02    7.5512898438e+04
    1.1119940318e-02    7.5025703125e+04
    1.1129982769e-02    7.4535828125e+04
    1.1139753275e-02    7.4058039062e+04
    1.1149794795e-02    7.3566742188e+04
    1.1159835383e-02    7.3075914062e+04
    1.1169875972e-02    7.2586195312e+04
    1.1179915629e-02    7.2098359375e+04
    1.1189956218e-02    7.1613046875e+04
    1.1199996807e-02    7.1130632812e+04
    1.1209766380e-02    7.0664125000e+04
    1.1219805107e-02    7.0187453125e+04
    1.1229841970e-02    6.9713523438e+04
    1.1239877902e-02    6.9242085938e+04
    1.1249917559e-02    6.8772976562e+04
    1.1259960011e-02    6.8306453125e+04
    1.1269731447e-02    6.7855171875e+04
    1.1279776692e-02    6.7394007812e+04
    1.1289823800e-02    6.6935375000e+04
    1.1299870908e-02    6.6479312500e+04
    1.1309918016e-02    6.6026023438e+04
    1.1319963261e-02    6.5575007812e+04
    1.1329735629e-02    6.5138625000e+04
    1.1339779012e-02    6.4693949219e+04
    1.1349822395e-02    6.4252515625e+04
    1.1359864846e-02    6.3814218750e+04
    1.1369907297e-02    6.3379593750e+04
    1.1379951611e-02    6.2947230469e+04
    1.1389996856e-02    6.2517484375e+04
    1.1399770156e-02    6.2101566406e+04
    1.1409813538e-02    6.1676332031e+04
    1.1419855990e-02    6.1254199219e+04
    1.1429897510e-02    6.0834871094e+04
    1.1439939030e-02    6.0418703125e+04
    1.1449979618e-02    6.0005300781e+04
    1.1459750123e-02    5.9605511719e+04
    1.1469791643e-02    5.9196894531e+04
    1.1479834095e-02    5.8790812500e+04
    1.1489874683e-02    5.8387386719e+04
    1.1499914341e-02    5.7986828125e+04
    1.1509953998e-02    5.7588949219e+04
    1.1519991793e-02    5.7193671875e+04
    1.1529759504e-02    5.6811511719e+04
    1.1539798230e-02    5.6421160156e+04
    1.1549836956e-02    5.6033339844e+04
    1.1559874751e-02    5.5647921875e+04
    1.1569911614e-02    5.5264734375e+04
    1.1579947546e-02    5.4883871094e+04
    1.1589983478e-02    5.4505667969e+04
    1.1599747464e-02    5.4140105469e+04
    1.1609783396e-02    5.3766515625e+04
    1.1619818397e-02    5.3395214844e+04
    1.1629853398e-02    5.3026433594e+04
    1.1639887467e-02    5.2660140625e+04
    1.1649920605e-02    5.2296292969e+04
    1.1659952812e-02    5.1934824219e+04
    1.1669985019e-02    5.1575644531e+04
    1.1679745279e-02    5.1228062500e+04
    1.1689777486e-02    5.0872699219e+04
    1.1699808761e-02    5.0519378906e+04
    1.1709840037e-02    5.0168246094e+04
    1.1719869450e-02    4.9819699219e+04
    1.1729898863e-02    4.9473738281e+04
    1.1739927344e-02    4.9130203125e+04
    1.1749954894e-02    4.8788667969e+04
    1.1759983376e-02    4.8448886719e+04
    1.1769742705e-02    4.8119890625e+04
    1.1779773049e-02    4.7783578125e+04
    1.1789801531e-02    4.7449410156e+04
    1.1799829081e-02    4.7117613281e+04
    1.1809854768e-02    4.6788203125e+04
    1.1819879524e-02    4.6460957031e+04
    1.1829904281e-02    4.6135558594e+04
    1.1839929037e-02    4.5811839844e+04
    1.1849954724e-02    4.5489738281e+04
    1.1859984137e-02    4.5169300781e+04
    1.1869746260e-02    4.4859199219e+04
    1.1879779398e-02    4.4542332031e+04
    1.1889812537e-02    4.4227675781e+04
    1.1899842881e-02    4.3915449219e+04
    1.1909872293e-02    4.3605210938e+04
    1.1919900775e-02    4.3296562500e+04
    1.1929928325e-02    4.2989785156e+04
    1.1939954944e-02    4.2684667969e+04
    1.1949981563e-02    4.2380914062e+04
    1.1959737167e-02    4.2087312500e+04
    1.1969762854e-02    4.1787328125e+04
    1.1979788542e-02    4.1488960938e+04
    1.1989814229e-02    4.1192730469e+04
    1.1999839917e-02    4.0898062500e+04
    1.2009864673e-02    4.0605050781e+04
    1.2019889429e-02    4.0313710938e+04
    1.2029914185e-02    4.0023847656e+04
    1.2039938010e-02    3.9735699219e+04
    1.2049961835e-02    3.9449125000e+04
    1.2059983797e-02    3.9164300781e+04
    1.2069734745e-02    3.8888746094e+04
    1.2079755776e-02    3.8607210938e+04
    1.2089776807e-02    3.8327242188e+04
    1.2099796906e-02    3.8048875000e+04
    1.2109817006e-02    3.7772097656e+04
    1.2119837105e-02    3.7496769531e+04
    1.2129856274e-02    3.7223183594e+04
    1.2139874510e-02    3.6950988281e+04
    1.2149891816e-02    3.6680371094e+04
    1.2159909122e-02    3.6411335938e+04
    1.2169926427e-02    3.6143480469e+04
    1.2179942802e-02    3.5877332031e+04
    1.2189959176e-02    3.5612851562e+04
    1.2199974619e-02    3.5349718750e+04
    1.2209990062e-02    3.5088160156e+04
    1.2219735421e-02    3.4835207031e+04
    1.2229752727e-02    3.4576722656e+04
    1.2239771895e-02    3.4319660156e+04
    1.2249791063e-02    3.4063980469e+04
    1.2259815820e-02    3.3809714844e+04
    1.2269865721e-02    3.3556468750e+04
    1.2279943563e-02    3.3303976562e+04
    1.2289774604e-02    3.3058976562e+04
    1.2299899943e-02    3.2808234375e+04
    1.2309768237e-02    3.2565556641e+04
    1.2319917791e-02    3.2317587891e+04
    1.2329796329e-02    3.2077802734e+04
    1.2339953333e-02    3.1832607422e+04
    1.2349841185e-02    3.1595431641e+04
    1.2359745800e-02    3.1359406250e+04
    1.2369955890e-02    3.1117794922e+04
    1.2379933149e-02    3.0883732422e+04
    1.2389958836e-02    3.0651187500e+04
    1.2399751693e-02    3.0427341797e+04
    1.2409871444e-02    3.0200101562e+04
    1.2419750914e-02    2.9982513672e+04
    1.2429947965e-02    2.9763000000e+04
    1.2439890765e-02    2.9560755859e+04
    1.2449858710e-02    2.9396173828e+04
    1.2459852733e-02    2.9340037109e+04
    1.2469875626e-02    2.9497306641e+04
    1.2479925528e-02    2.9978869141e+04
    1.2489712797e-02    3.0696093750e+04
    1.2499812059e-02    3.1550076172e+04
    1.2509932742e-02    3.2908480469e+04
    1.2519778684e-02    3.5091253906e+04
    1.2529927306e-02    3.7111070312e+04
    1.2539797463e-02    3.8267679688e+04
    1.2549974024e-02    3.9107003906e+04
    1.2559882365e-02    3.9746367188e+04
    1.2569818646e-02    4.0278769531e+04
    1.2579790317e-02    4.0737437500e+04
    1.2589800172e-02    4.1141570312e+04
    1.2599840760e-02    4.1503511719e+04
    1.2609907426e-02    4.1832585938e+04
    1.2619988993e-02    4.2135796875e+04
    1.2629777193e-02    4.2410878906e+04
    1.2639866211e-02    4.2679027344e+04
    1.2649957091e-02    4.2933992188e+04
    1.2659752741e-02    4.3170062500e+04
    1.2669855729e-02    4.3402437500e+04
    1.2679979205e-02    4.3623468750e+04
    1.2689832598e-02    4.3826859375e+04
    1.2699712999e-02    4.4020312500e+04
    1.2709923089e-02    4.4210925781e+04
    1.2719856575e-02    4.4388921875e+04
    1.2729804032e-02    4.4561562500e+04
    1.2739760801e-02    4.4729972656e+04
    1.2749719433e-02    4.4894953125e+04
    1.2759983540e-02    4.5060542969e+04
    1.2769961730e-02    4.5216550781e+04
    1.2779982761e-02    4.5367046875e+04
    1.2789777480e-02    4.5507199219e+04
    1.2799689546e-02    4.5642113281e+04
    1.2809752487e-02    4.5773300781e+04
    1.2819992378e-02    4.5902714844e+04
    1.2829766609e-02    4.6024058594e+04
    1.2839713134e-02    4.6146636719e+04
    1.2849834748e-02    4.6270769531e+04
    1.2859783135e-02    4.6391449219e+04
    1.2869890779e-02    4.6511292969e+04
    1.2879798189e-02    4.6624675781e+04
    1.2889849022e-02    4.6735187500e+04
    1.2899675407e-02    4.6839292969e+04
    1.2909630314e-02    4.6941917969e+04
    1.2919712812e-02    4.7044546875e+04
    1.2929921970e-02    4.7148785156e+04
    1.2939871289e-02    4.7251761719e+04
    1.2949936092e-02    4.7356730469e+04
    1.2959720567e-02    4.7457449219e+04
    1.2969611213e-02    4.7555406250e+04
    1.2979606166e-02    4.7649875000e+04
    1.2989706360e-02    4.7742375000e+04
    1.2999909930e-02    4.7835082031e+04
    1.3009803370e-02    4.7925937500e+04
    1.3019791804e-02    4.8019144531e+04
    1.3029875234e-02    4.8113855469e+04
    1.3039628975e-02    4.8204496094e+04
    1.3049897738e-02    4.8297894531e+04
    1.3059821911e-02    4.8386707031e+04
    1.3069827110e-02    4.8475160156e+04
    1.3079914264e-02    4.8563046875e+04
    1.3089636341e-02    4.8646613281e+04
    1.3099879026e-02    4.8734750000e+04
    1.3109750114e-02    4.8820902344e+04
    1.3119683601e-02    4.8908417969e+04
    1.3129667379e-02    4.8996363281e+04
    1.3139690273e-02    4.9083996094e+04
    1.3149748556e-02    4.9170628906e+04
    1.3159832917e-02    4.9255878906e+04
    1.3169950806e-02    4.9340238281e+04
    1.3179638423e-02    4.9420730469e+04
    1.3189824298e-02    4.9506019531e+04
    1.3199592941e-02    4.9588839844e+04
    1.3209870085e-02    4.9677121094e+04
    1.3219702058e-02    4.9762222656e+04
    1.3229573146e-02    4.9847449219e+04
    1.3239952736e-02    4.9935550781e+04
    1.3249911368e-02    5.0017808594e+04
    1.3259893283e-02    5.0098207031e+04
    1.3269908726e-02    5.0177671875e+04
    1.3279954903e-02    5.0257609375e+04
    1.3289568014e-02    5.0335769531e+04
    1.3299718499e-02    5.0420535156e+04
    1.3309853151e-02    5.0507921875e+04
    1.3319578953e-02    5.0593281250e+04
    1.3329816051e-02    5.0684199219e+04
    1.3339581899e-02    5.0770921875e+04
    1.3349896297e-02    5.0861160156e+04
    1.3359725475e-02    5.0944449219e+04
    1.3369624503e-02    5.1025511719e+04
    1.3379503973e-02    5.1103621094e+04
    1.3389929198e-02    5.1184906250e+04
    1.3399932534e-02    5.1262277344e+04
    1.3409916312e-02    5.1340167969e+04
    1.3419898227e-02    5.1419675781e+04
    1.3429515064e-02    5.1497511719e+04
    1.3439609669e-02    5.1581089844e+04
    1.3449669816e-02    5.1666074219e+04
    1.3459810056e-02    5.1752058594e+04
    1.3469988480e-02    5.1839832031e+04
    1.3479633257e-02    5.1924761719e+04
    1.3489846140e-02    5.2015800781e+04
    1.3499572873e-02    5.2103167969e+04
    1.3509864919e-02    5.2194625000e+04
    1.3519672677e-02    5.2279652344e+04
    1.3529509306e-02    5.2362042969e+04
    1.3539927080e-02    5.2448953125e+04
    1.3549870811e-02    5.2534296875e+04
    1.3559757732e-02    5.2621488281e+04
    1.3569688424e-02    5.2709660156e+04
    1.3579626568e-02    5.2795281250e+04
    1.3589608483e-02    5.2879078125e+04
    1.3599604368e-02    5.2962675781e+04
    1.3609594665e-02    5.3047011719e+04
    1.3619681820e-02    5.3133667969e+04
    1.3629732653e-02    5.3220792969e+04
    1.3639774173e-02    5.3308511719e+04
    1.3649859466e-02    5.3396718750e+04
    1.3659987599e-02    5.3485265625e+04
    1.3669590466e-02    5.3570511719e+04
    1.3679748401e-02    5.3660261719e+04
    1.3689942658e-02    5.3750406250e+04
    1.3699597679e-02    5.3836019531e+04
    1.3709840365e-02    5.3926800781e+04
    1.3719530776e-02    5.4013042969e+04
    1.3729803264e-02    5.4104199219e+04
    1.3739551418e-02    5.4191308594e+04
    1.3749838807e-02    5.4283550781e+04
    1.3759640045e-02    5.4372082031e+04
    1.3769940473e-02    5.4464855469e+04
    1.3779706322e-02    5.4554144531e+04
    1.3789973222e-02    5.4647953125e+04
    1.3799681328e-02    5.4736277344e+04
    1.3809815980e-02    5.4828894531e+04
    1.3819765300e-02    5.4920628906e+04
    1.3829992153e-02    5.5015582031e+04
    1.3839939609e-02    5.5108238281e+04
    1.3849603012e-02    5.5198339844e+04
    1.3859909959e-02    5.5294722656e+04
    1.3869892806e-02    5.5388363281e+04
    1.3879992068e-02    5.5483246094e+04
    1.3889756054e-02    5.5575222656e+04
    1.3899999671e-02    5.5672332031e+04
    1.3909867965e-02    5.5766644531e+04
    1.3919741847e-02    5.5861675781e+04
    1.3929943554e-02    5.5960105469e+04
    1.3939704746e-02    5.6054500000e+04
    1.3949683867e-02    5.6151707031e+04
    1.3959789649e-02    5.6251121094e+04
    1.3969925232e-02    5.6351652344e+04
    1.3979986310e-02    5.6451484375e+04
    1.3989859261e-02    5.6549113281e+04
    1.3999877498e-02    5.6648390625e+04
    1.4009838924e-02    5.6747753906e+04
    1.4019977301e-02    5.6849125000e+04
    1.4029912651e-02    5.6947515625e+04
    1.4039981179e-02    5.7047015625e+04
    1.4049925841e-02    5.7140332031e+04
    1.4059972018e-02    5.7237093750e+04
    1.4069860801e-02    5.7334167969e+04
    1.4079988003e-02    5.7435808594e+04
    1.4089898206e-02    5.7536535156e+04
    1.4099895023e-02    5.7637718750e+04
    1.4109876007e-02    5.7737332031e+04
    1.4119941741e-02    5.7836644531e+04
    1.4129881747e-02    5.7935265625e+04
    1.4139890671e-02    5.8037371094e+04
    1.4149943367e-02    5.8143964844e+04
    1.4159983024e-02    5.8254000000e+04
    1.4169977978e-02    5.8365464844e+04
    1.4179882593e-02    5.8475691406e+04
    1.4189881273e-02    5.8585359375e+04
    1.4199964702e-02    5.8694285156e+04
    1.4209909365e-02    5.8800832031e+04
    1.4219916426e-02    5.8907761719e+04
    1.4229984954e-02    5.9015488281e+04
    1.4239875600e-02    5.9122417969e+04
    1.4249814674e-02    5.9231613281e+04
    1.4259791933e-02    5.9343300781e+04
    1.4269817621e-02    5.9457425781e+04
    1.4279866591e-02    5.9573640625e+04
    1.4289955609e-02    5.9691355469e+04
    1.4299852774e-02    5.9807003906e+04
    1.4309776016e-02    5.9922449219e+04
    1.4319958165e-02    6.0040199219e+04
    1.4329930767e-02    6.0154628906e+04
    1.4339943416e-02    6.0268812500e+04
    1.4349956065e-02    6.0383035156e+04
    1.4359792694e-02    6.0495730469e+04
    1.4369848184e-02    6.0611453125e+04
    1.4379967004e-02    6.0728886719e+04
    1.4389825985e-02    6.0844246094e+04
    1.4399975538e-02    6.0963925781e+04
    1.4409891330e-02    6.1081886719e+04
    1.4419831336e-02    6.1200890625e+04
    1.4429789968e-02    6.1320832031e+04
    1.4439791441e-02    6.1441753906e+04
    1.4449791983e-02    6.1563121094e+04
    1.4459813945e-02    6.1685066406e+04
    1.4469882473e-02    6.1807859375e+04
    1.4479931444e-02    6.1930519531e+04
    1.4489781111e-02    6.2050449219e+04
    1.4499901794e-02    6.2173199219e+04
    1.4509787783e-02    6.2292449219e+04
    1.4519915916e-02    6.2413910156e+04
    1.4529859647e-02    6.2533042969e+04
    1.4539798722e-02    6.2652792969e+04
    1.4549976215e-02    6.2776785156e+04
    1.4559959061e-02    6.2900722656e+04
    1.4569944702e-02    6.3028566406e+04
    1.4579933137e-02    6.3161707031e+04
    1.4589956962e-02    6.3301550781e+04
    1.4599996619e-02    6.3447292969e+04
    1.4609781094e-02    6.3591582031e+04
    1.4619845897e-02    6.3736785156e+04
    1.4629934914e-02    6.3874183594e+04
    1.4639761299e-02    6.3998667969e+04
    1.4649852179e-02    6.4120324219e+04
    1.4659980312e-02    6.4242542969e+04
    1.4669856057e-02    6.4367167969e+04
    1.4679977670e-02    6.4502113281e+04
    1.4689891599e-02    6.4638640625e+04
    1.4699810185e-02    6.4774894531e+04
    1.4709975570e-02    6.4911406250e+04
    1.4719923027e-02    6.5042781250e+04
    1.4729875140e-02    6.5174519531e+04
    1.4739832841e-02    6.5307699219e+04
    1.4749815688e-02    6.5442042969e+04
    1.4759808779e-02    6.5576468750e+04
    1.4769796282e-02    6.5711390625e+04
    1.4779800549e-02    6.5848820312e+04
    1.4789825305e-02    6.5989968750e+04
    1.4799846336e-02    6.6133867188e+04
    1.4809873886e-02    6.6279304688e+04
    1.4819923788e-02    6.6425742188e+04
    1.4829983003e-02    6.6573250000e+04
    1.4839807525e-02    6.6719007812e+04
    1.4849890955e-02    6.6871125000e+04
    1.4859978110e-02    6.7026664062e+04
    1.4869824983e-02    6.7181796875e+04
    1.4879932627e-02    6.7343796875e+04
    1.4889801852e-02    6.7503890625e+04
    1.4899916016e-02    6.7669390625e+04
    1.4909796417e-02    6.7832703125e+04
    1.4919941314e-02    6.8002867188e+04
    1.4929843135e-02    6.8172164062e+04
    1.4939993620e-02    6.8349250000e+04
    1.4949908480e-02    6.8524960938e+04
    1.4959832653e-02    6.8702742188e+04
    1.4969765209e-02    6.8882195312e+04
    1.4979952015e-02    6.9068335938e+04
    1.4989896677e-02    6.9253117188e+04
    1.4999848790e-02    6.9441390625e+04
    1.5009813942e-02    6.9632890625e+04
    1.5019782819e-02    6.9826906250e+04
    1.5029752627e-02    7.0022859375e+04
    1.5039984137e-02    7.0226039062e+04
    1.5049976297e-02    7.0427296875e+04
    1.5059975907e-02    7.0631890625e+04
    1.5069974586e-02    7.0839500000e+04
    1.5079979785e-02    7.1049812500e+04
    1.5089998022e-02    7.1262890625e+04
    1.5099773183e-02    7.1473390625e+04
    1.5109800734e-02    7.1692398438e+04
    1.5119830146e-02    7.1914773438e+04
    1.5129870735e-02    7.2140460938e+04
    1.5139921568e-02    7.2369343750e+04
    1.5149974264e-02    7.2601218750e+04
    1.5159780160e-02    7.2830523438e+04
    1.5169840306e-02    7.3069179688e+04
    1.5179910697e-02    7.3311531250e+04
    1.5189991333e-02    7.3557398438e+04
    1.5199815854e-02    7.3800226562e+04
    1.5209899284e-02    7.4053125000e+04
    1.5219992027e-02    7.4310218750e+04
    1.5229838900e-02    7.4565015625e+04
    1.5239940956e-02    7.4830187500e+04
    1.5249789692e-02    7.5092328125e+04
    1.5259901062e-02    7.5365750000e+04
    1.5269768424e-02    7.5637203125e+04
    1.5279893763e-02    7.5920398438e+04
    1.5289764851e-02    7.6200867188e+04
    1.5299890190e-02    7.6493304688e+04
    1.5309773386e-02    7.6783804688e+04
    1.5319915488e-02    7.7087359375e+04
    1.5329804271e-02    7.7388898438e+04
    1.5339949168e-02    7.7704109375e+04
    1.5349842608e-02    7.8017335938e+04
    1.5359749086e-02    7.8337101562e+04
    1.5369907953e-02    7.8672023438e+04
    1.5379815362e-02    7.9005882812e+04
    1.5389983542e-02    7.9356156250e+04
    1.5399900265e-02    7.9705625000e+04
    1.5409825370e-02    8.0063750000e+04
    1.5419747680e-02    8.0430812500e+04
    1.5429927967e-02    8.0817531250e+04
    1.5439861454e-02    8.1205492188e+04
    1.5449794941e-02    8.1604734375e+04
    1.5459990129e-02    8.2027414062e+04
    1.5469926409e-02    8.2453203125e+04
    1.5479867347e-02    8.2894101562e+04
    1.5489817597e-02    8.3352156250e+04
    1.5499767847e-02    8.3930890625e+04
    1.5509975143e-02    1.1471533594e+05
    1.5519923531e-02    1.1427336719e+05
    1.5529872850e-02    1.1374078125e+05
    1.5539828688e-02    1.1328465625e+05
    1.5549783595e-02    1.1282122656e+05
    1.5559997410e-02    1.1236821875e+05
    1.5569960698e-02    1.1193460156e+05
    1.5579925850e-02    1.1151391406e+05
    1.5589892864e-02    1.1110421875e+05
    1.5599860810e-02    1.1070546094e+05
    1.5609828755e-02    1.1031733594e+05
    1.5619795769e-02    1.0993963281e+05
    1.5629762784e-02    1.0957208594e+05
    1.5639984980e-02    1.0920508594e+05
    1.5649950132e-02    1.0885652344e+05
    1.5659917146e-02    1.0851675781e+05
    1.5669882298e-02    1.0818471094e+05
    1.5679849312e-02    1.0786011719e+05
    1.5689816326e-02    1.0754310156e+05
    1.5699783340e-02    1.0723334375e+05
    1.5709750354e-02    1.0693100000e+05
    1.5719974414e-02    1.0662917969e+05
    1.5729945153e-02    1.0634203906e+05
    1.5739915892e-02    1.0606224219e+05
    1.5749886632e-02    1.0578924219e+05
    1.5759859234e-02    1.0552288281e+05
    1.5769829974e-02    1.0526255469e+05
    1.5779802576e-02    1.0500821875e+05
    1.5789773315e-02    1.0475884375e+05
    1.5799745917e-02    1.0451664844e+05
    1.5809973702e-02    1.0427210156e+05
    1.5819946304e-02    1.0403872656e+05
    1.5829918906e-02    1.0381146875e+05
    1.5839893371e-02    1.0358974219e+05
    1.5849867836e-02    1.0337221875e+05
    1.5859842300e-02    1.0315971094e+05
    1.5869816765e-02    1.0295181250e+05
    1.5879793093e-02    1.0274865625e+05
    1.5889771283e-02    1.0255053906e+05
    1.5899747610e-02    1.0235647656e+05
    1.5909980983e-02    1.0216178906e+05
    1.5919959173e-02    1.0197566406e+05
    1.5929937363e-02    1.0179290625e+05
    1.5939915553e-02    1.0161397656e+05
    1.5949893743e-02    1.0143919531e+05
    1.5959873796e-02    1.0126818750e+05
    1.5969851986e-02    1.0110034375e+05
    1.5979832038e-02    1.0093546094e+05
    1.5989812091e-02    1.0077367969e+05
    1.5999792144e-02    1.0061558594e+05
    1.6009770334e-02    1.0046142969e+05
    1.6019750386e-02    1.0031127344e+05
    1.6029985622e-02    1.0016122656e+05
    1.6039965674e-02    1.0001733594e+05
    1.6049947590e-02    9.9877898438e+04
    1.6059931368e-02    9.9739460938e+04
    1.6069917008e-02    9.9604179688e+04
    1.6079906374e-02    9.9471867188e+04
    1.6089899465e-02    9.9342312500e+04
    1.6099896282e-02    9.9215773438e+04
    1.6109889373e-02    9.9092226562e+04
    1.6119882464e-02    9.8971210938e+04
    1.6129873693e-02    9.8852601562e+04
    1.6139864922e-02    9.8736242188e+04
    1.6149856150e-02    9.8622195312e+04
    1.6159845516e-02    9.8511023438e+04
    1.6169838607e-02    9.8402500000e+04
    1.6179833561e-02    9.8296898438e+04
    1.6189832240e-02    9.8193648438e+04
    1.6199830920e-02    9.8092476562e+04
    1.6209827736e-02    9.7993351562e+04
    1.6219826415e-02    9.7896023438e+04
    1.6229823232e-02    9.7800773438e+04
    1.6239821911e-02    9.7707398438e+04
    1.6249820590e-02    9.7615726562e+04
    1.6259817407e-02    9.7525804688e+04
    1.6269816086e-02    9.7437992188e+04
    1.6279812902e-02    9.7353085938e+04
    1.6289809719e-02    9.7271585938e+04
    1.6299808398e-02    9.7193656250e+04
    1.6309808940e-02    9.7118664062e+04
    1.6319807619e-02    9.7044773438e+04
    1.6329806298e-02    9.6971656250e+04
    1.6339804977e-02    9.6899289062e+04
    1.6349805519e-02    9.6827898438e+04
    1.6359804198e-02    9.6758148438e+04
    1.6369802877e-02    9.6690882812e+04
    1.6379801556e-02    9.6626070312e+04
    1.6389800236e-02    9.6563664062e+04
    1.6399800777e-02    9.6503406250e+04
    1.6409801319e-02    9.6444625000e+04
    1.6419799998e-02    9.6387351562e+04
    1.6429800540e-02    9.6331218750e+04
    1.6439799219e-02    9.6276820312e+04
    1.6449799761e-02    9.6224007812e+04
    1.6459798440e-02    9.6173281250e+04
    1.6469798982e-02    9.6124281250e+04
    1.6479799524e-02    9.6077031250e+04
    1.6489798203e-02    9.6031304688e+04
    1.6499798745e-02    9.5986914062e+04
    1.6509799287e-02    9.5944273438e+04
    1.6519797966e-02    9.5903132812e+04
    1.6529798508e-02    9.5863523438e+04
    1.6539799049e-02    9.5825820312e+04
    1.6549799591e-02    9.5788523438e+04
    1.6559800133e-02    9.5753968750e+04
    1.6569800675e-02    9.5719468750e+04
    1.6579801217e-02    9.5687773438e+04
    1.6589801759e-02    9.5657789062e+04
    1.6599802300e-02    9.5628406250e+04
    1.6609802842e-02    9.5600320312e+04
    1.6619803384e-02    9.5573882812e+04
    1.6629803926e-02    9.5548976562e+04
    1.6639804468e-02    9.5525351562e+04
    1.6649805009e-02    9.5503007812e+04
    1.6659805551e-02    9.5481882812e+04
    1.6669806093e-02    9.5462164062e+04
    1.6679806635e-02    9.5443710938e+04
    1.6689807177e-02    9.5426648438e+04
    1.6699807718e-02    9.5410937500e+04
    1.6709808260e-02    9.5396226562e+04
    1.6719808802e-02    9.5382898438e+04
    1.6729809344e-02    9.5370710938e+04
    1.6739811748e-02    9.5360218750e+04
    1.6749812290e-02    9.5350992188e+04
    1.6759812832e-02    9.5343039062e+04
    1.6769813374e-02    9.5336257812e+04
    1.6779813915e-02    9.5330875000e+04
    1.6789814457e-02    9.5326375000e+04
    1.6799814999e-02    9.5323289062e+04
    1.6809817404e-02    9.5321335938e+04
    1.6819817945e-02    9.5319843750e+04
    1.6829818487e-02    9.5320398438e+04
    1.6839819029e-02    9.5320656250e+04
    1.6849821433e-02    9.5322601562e+04
    1.6859821975e-02    9.5326726562e+04
    1.6869822517e-02    9.5331632812e+04
    1.6879824921e-02    9.5337320312e+04
    1.6889825463e-02    9.5343742188e+04
    1.6899826005e-02    9.5351492188e+04
    1.6909828410e-02    9.5360500000e+04
    1.6919828951e-02    9.5370726562e+04
    1.6929831356e-02    9.5382039062e+04
    1.6939831898e-02    9.5394062500e+04
    1.6949834302e-02    9.5406906250e+04
    1.6959834844e-02    9.5420351562e+04
    1.6969837248e-02    9.5434882812e+04
    1.6979837790e-02    9.5450789062e+04
    1.6989840195e-02    9.5468398438e+04
    1.6999840736e-02    9.5487539062e+04
    1.7009843141e-02    9.5507460938e+04
    1.7019845545e-02    9.5527742188e+04
    1.7029846087e-02    9.5547562500e+04
    1.7039848492e-02    9.5567164062e+04
    1.7049850896e-02    9.5587429688e+04
    1.7059853300e-02    9.5608843750e+04
    1.7069853842e-02    9.5632476562e+04
    1.7079856247e-02    9.5658726562e+04
    1.7089858651e-02    9.5687187500e+04
    1.7099861056e-02    9.5717226562e+04
    1.7109863460e-02    9.5747476562e+04
    1.7119865865e-02    9.5777023438e+04
    1.7129868269e-02    9.5805125000e+04
    1.7139870673e-02    9.5831773438e+04
    1.7149874941e-02    9.5857773438e+04
    1.7159877345e-02    9.5884351562e+04
    1.7169879749e-02    9.5912476562e+04
    1.7179882154e-02    9.5942773438e+04
    1.7189886421e-02    9.5975335938e+04
    1.7199888825e-02    9.6009851562e+04
    1.7209893093e-02    9.6045835938e+04
    1.7219897360e-02    9.6082695312e+04
    1.7229899764e-02    9.6120000000e+04
    1.7239904031e-02    9.6157164062e+04
    1.7249908298e-02    9.6193625000e+04
    1.7259910703e-02    9.6228976562e+04
    1.7269914970e-02    9.6263218750e+04
    1.7279919237e-02    9.6296437500e+04
    1.7289923504e-02    9.6328851562e+04
    1.7299927771e-02    9.6360898438e+04
    1.7309932038e-02    9.6393000000e+04
    1.7319938168e-02    9.6425445312e+04
    1.7329942435e-02    9.6458507812e+04
    1.7339948565e-02    9.6492195312e+04
    1.7349952832e-02    9.6526148438e+04
    1.7359958962e-02    9.6559867188e+04
    1.7369963229e-02    9.6592914062e+04
    1.7379969358e-02    9.6625242188e+04
    1.7389973626e-02    9.6656851562e+04
    1.7399979755e-02    9.6687914062e+04
    1.7409985885e-02    9.6718460938e+04
    1.7419992015e-02    9.6748414062e+04
    1.7429998145e-02    9.6777757812e+04
    1.7439749092e-02    9.6805898438e+04
    1.7449755222e-02    9.6834585938e+04
    1.7459761351e-02    9.6863289062e+04
    1.7469767481e-02    9.6891867188e+04
    1.7479775473e-02    9.6920125000e+04
    1.7489781603e-02    9.6948132812e+04
    1.7499787733e-02    9.6976226562e+04
    1.7509795725e-02    9.7004726562e+04
    1.7519801855e-02    9.7033960938e+04
    1.7529809847e-02    9.7064281250e+04
    1.7539815977e-02    9.7095742188e+04
    1.7549823970e-02    9.7128210938e+04
    1.7559830099e-02    9.7161273438e+04
    1.7569838092e-02    9.7193789062e+04
    1.7579846084e-02    9.7224500000e+04
    1.7589855939e-02    9.7251585938e+04
    1.7599863932e-02    9.7273195312e+04
    1.7609871924e-02    9.7288367188e+04
    1.7619879916e-02    9.7296335938e+04
    1.7629887909e-02    9.7298156250e+04
    1.7639897764e-02    9.7296781250e+04
    1.7649905756e-02    9.7301726562e+04
    1.7659915611e-02    9.7312882812e+04
    1.7669923604e-02    9.7331000000e+04
    1.7679933459e-02    9.7353992188e+04
    1.7689941451e-02    9.7379007812e+04
    1.7699951306e-02    9.7402742188e+04
    1.7709961161e-02    9.7422773438e+04
    1.7719971016e-02    9.7438664062e+04
    1.7729980871e-02    9.7452070312e+04
    1.7739990726e-02    9.7465437500e+04
    1.7749743536e-02    9.7479945312e+04
    1.7759753391e-02    9.7496281250e+04
    1.7769763246e-02    9.7513335938e+04
    1.7779773101e-02    9.7530539062e+04
    1.7789784819e-02    9.7547937500e+04
    1.7799794674e-02    9.7565750000e+04
    1.7809806392e-02    9.7583875000e+04
    1.7819816247e-02    9.7601726562e+04
    1.7829827964e-02    9.7618679688e+04
    1.7839837819e-02    9.7634523438e+04
    1.7849849537e-02    9.7649726562e+04
    1.7859861255e-02    9.7665023438e+04
    1.7869872972e-02    9.7681007812e+04
    1.7879884690e-02    9.7697976562e+04
    1.7889896408e-02    9.7715539062e+04
    1.7899908125e-02    9.7733226562e+04
    1.7909919843e-02    9.7750570312e+04
    1.7919931561e-02    9.7767398438e+04
    1.7929943278e-02    9.7783773438e+04
    1.7939956859e-02    9.7800000000e+04
    1.7949968576e-02    9.7816539062e+04
    1.7959982157e-02    9.7833648438e+04
    1.7969993874e-02    9.7851156250e+04
    1.7979750410e-02    9.7868289062e+04
    1.7989763990e-02    9.7885570312e+04
    1.7999775708e-02    9.7902398438e+04
    1.8009789288e-02    9.7919023438e+04
    1.8019802868e-02    9.7935898438e+04
    1.8029816449e-02    9.7953289062e+04
    1.8039830029e-02    9.7971101562e+04
    1.8049843609e-02    9.7988914062e+04
    1.8059857190e-02    9.8006335938e+04
    1.8069870770e-02    9.8023320312e+04
    1.8079886213e-02    9.8040117188e+04
    1.8089899793e-02    9.8057101562e+04
    1.8099913374e-02    9.8074539062e+04
    1.8109928817e-02    9.8092445312e+04
    1.8119942397e-02    9.8110445312e+04
    1.8129957840e-02    9.8128312500e+04
    1.8139973283e-02    9.8146023438e+04
    1.8149986863e-02    9.8163664062e+04
    1.8159745261e-02    9.8180960938e+04
    1.8169760704e-02    9.8198898438e+04
    1.8179776147e-02    9.8216898438e+04
    1.8189791590e-02    9.8234851562e+04
    1.8199807033e-02    9.8252679688e+04
    1.8209822476e-02    9.8270398438e+04
    1.8219837919e-02    9.8288039062e+04
    1.8229853362e-02    9.8305773438e+04
    1.8239868805e-02    9.8323601562e+04
    1.8249884248e-02    9.8341523438e+04
    1.8259901553e-02    9.8359539062e+04
    1.8269916996e-02    9.8377664062e+04
    1.8279932439e-02    9.8395812500e+04
    1.8289949745e-02    9.8413898438e+04
    1.8299965188e-02    9.8431835938e+04
    1.8309982494e-02    9.8449648438e+04
    1.8319999799e-02    9.8467437500e+04
    1.8329758197e-02    9.8484882812e+04
    1.8339775503e-02    9.8502906250e+04
    1.8349792808e-02    9.8521007812e+04
    1.8359810114e-02    9.8539101562e+04
    1.8369827420e-02    9.8557164062e+04
    1.8379844725e-02    9.8575164062e+04
    1.8389862031e-02    9.8593125000e+04
    1.8399879336e-02    9.8611039062e+04
    1.8409896642e-02    9.8628960938e+04
    1.8419913948e-02    9.8646937500e+04
    1.8429931253e-02    9.8664851562e+04
    1.8439948559e-02    9.8682781250e+04
    1.8449967727e-02    9.8700750000e+04
    1.8459985033e-02    9.8718789062e+04
    1.8469747156e-02    9.8736398438e+04
    1.8479764462e-02    9.8754429688e+04
    1.8489781767e-02    9.8772351562e+04
    1.8499800935e-02    9.8790218750e+04
    1.8509820104e-02    9.8808054688e+04
    1.8519837409e-02    9.8825843750e+04
    1.8529856578e-02    9.8843570312e+04
    1.8539875746e-02    9.8861289062e+04
    1.8549893051e-02    9.8879023438e+04
    1.8559912220e-02    9.8896664062e+04
    1.8569931388e-02    9.8914210938e+04
    1.8579950556e-02    9.8931664062e+04
    1.8589969724e-02    9.8949179688e+04
    1.8599988893e-02    9.8966773438e+04
    1.8609751016e-02    9.8983914062e+04
    1.8619770184e-02    9.9001476562e+04
    1.8629789352e-02    9.9018906250e+04
    1.8639808521e-02    9.9036148438e+04
    1.8649829552e-02    9.9053289062e+04
    1.8659848720e-02    9.9070492188e+04
    1.8669867888e-02    9.9087789062e+04
    1.8679888919e-02    9.9105179688e+04
    1.8689908087e-02    9.9122601562e+04
    1.8699927256e-02    9.9139906250e+04
    1.8709948286e-02    9.9156898438e+04
    1.8719967455e-02    9.9173468750e+04
    1.8729988486e-02    9.9189648438e+04
    1.8739752471e-02    9.9205156250e+04
    1.8749771640e-02    9.9221000000e+04
    1.8759792671e-02    9.9237039062e+04
    1.8769813702e-02    9.9253507812e+04
    1.8779832870e-02    9.9270398438e+04
    1.8789853901e-02    9.9287531250e+04
    1.8799874932e-02    9.9304656250e+04
    1.8809895962e-02    9.9321523438e+04
    1.8819916993e-02    9.9338023438e+04
    1.8829938024e-02    9.9354156250e+04
    1.8839959055e-02    9.9369960938e+04
    1.8849980086e-02    9.9385492188e+04
    1.8859744072e-02    9.9400476562e+04
    1.8869765103e-02    9.9415835938e+04
    1.8879786134e-02    9.9431257812e+04
    1.8889807165e-02    9.9446757812e+04
    1.8899828196e-02    9.9462226562e+04
    1.8909851089e-02    9.9477531250e+04
    1.8919872120e-02    9.9492562500e+04
    1.8929893151e-02    9.9507335938e+04
    1.8939914182e-02    9.9521898438e+04
    1.8949937075e-02    9.9536242188e+04
    1.8959958106e-02    9.9550312500e+04
    1.8969981000e-02    9.9564117188e+04
    1.8979744986e-02    9.9577398438e+04
    1.8989767879e-02    9.9590976562e+04
    1.8999788910e-02    9.9604687500e+04
    1.9009811804e-02    9.9618523438e+04
    1.9019832835e-02    9.9632312500e+04
    1.9029855728e-02    9.9646000000e+04
    1.9039878622e-02    9.9659617188e+04
    1.9049899653e-02    9.9673351562e+04
    1.9059922546e-02    9.9687304688e+04
    1.9069945440e-02    9.9701335938e+04
    1.9079966471e-02    9.9715117188e+04
    1.9089989364e-02    9.9728414062e+04
    1.9099755213e-02    9.9740867188e+04
    1.9109778106e-02    9.9753257812e+04
    1.9119801000e-02    9.9765476562e+04
    1.9129823893e-02    9.9777632812e+04
    1.9139846787e-02    9.9789773438e+04
    1.9149869680e-02    9.9801875000e+04
    1.9159892574e-02    9.9813820312e+04
    1.9169915468e-02    9.9825460938e+04
    1.9179938361e-02    9.9836726562e+04
    1.9189961255e-02    9.9847632812e+04
    1.9199984148e-02    9.9858273438e+04
    1.9209749997e-02    9.9868500000e+04
    1.9219772890e-02    9.9878976562e+04
    1.9229795784e-02    9.9889523438e+04
    1.9239820540e-02    9.9900148438e+04
    1.9249843433e-02    9.9910875000e+04
    1.9259866327e-02    9.9921718750e+04
    1.9269889221e-02    9.9932593750e+04
    1.9279913977e-02    9.9943367188e+04
    1.9289936870e-02    9.9953789062e+04
    1.9299959764e-02    9.9963601562e+04
    1.9309982657e-02    9.9972726562e+04
    1.9319750369e-02    9.9981164062e+04
    1.9329773262e-02    9.9989625000e+04
    1.9339798018e-02    9.9998117188e+04
    1.9349820912e-02    1.0000666406e+05
    1.9359845668e-02    1.0001514844e+05
    1.9369868562e-02    1.0002346094e+05
    1.9379893318e-02    1.0003158594e+05
    1.9389916211e-02    1.0003959375e+05
    1.9399940968e-02    1.0004756250e+05
    1.9409963861e-02    1.0005544531e+05
    1.9419988617e-02    1.0006310156e+05
    1.9429754466e-02    1.0007028125e+05
    1.9439779222e-02    1.0007734375e+05
[...]
    1.1513999104e-01    1.0123388281e+05
    1.1514977366e-01    1.0123386719e+05
    1.1515984684e-01    1.0123385156e+05
    1.1516992003e-01    1.0123385156e+05
    1.1517999321e-01    1.0123385156e+05
    1.1518977582e-01    1.0123384375e+05
    1.1519984901e-01    1.0123383594e+05
    1.1520992219e-01    1.0123383594e+05
    1.1521999538e-01    1.0123382031e+05
    1.1522977799e-01    1.0123380469e+05
    1.1523985118e-01    1.0123378125e+05
    1.1524992436e-01    1.0123375781e+05
    1.1525970697e-01    1.0123374219e+05
    1.1526978016e-01    1.0123371094e+05
    1.1527985334e-01    1.0123369531e+05
    1.1528992653e-01    1.0123366406e+05
    1.1529970914e-01    1.0123365625e+05
    1.1530978233e-01    1.0123364844e+05
    1.1531985551e-01    1.0123364844e+05
    1.1532992870e-01    1.0123364844e+05
    1.1533971131e-01    1.0123363281e+05
    1.1534978449e-01    1.0123363281e+05
    1.1535985768e-01    1.0123362500e+05
    1.1536993086e-01    1.0123362500e+05
    1.1537971348e-01    1.0123360156e+05
    1.1538978666e-01    1.0123360156e+05
    1.1539985985e-01    1.0123358594e+05
    1.1540994048e-01    1.0123357031e+05
    1.1541971564e-01    1.0123356250e+05
    1.1542978883e-01    1.0123355469e+05
    1.1543986201e-01    1.0123353906e+05
    1.1544994265e-01    1.0123353125e+05
    1.1545971781e-01    1.0123352344e+05
    1.1546979100e-01    1.0123352344e+05
    1.1547986418e-01    1.0123352344e+05
    1.1548994482e-01    1.0123352344e+05
    1.1549971998e-01    1.0123350781e+05
    1.1550979316e-01    1.0123350781e+05
    1.1551986635e-01    1.0123350000e+05
    1.1552994698e-01    1.0123347656e+05
    1.1553972214e-01    1.0123346875e+05
    1.1554979533e-01    1.0123346094e+05
    1.1555987597e-01    1.0123342969e+05
    1.1556994915e-01    1.0123340625e+05
    1.1557972431e-01    1.0123339844e+05
    1.1558979750e-01    1.0123337500e+05
    1.1559987813e-01    1.0123336719e+05
    1.1560995132e-01    1.0123336719e+05
    1.1561972648e-01    1.0123335156e+05
    1.1562979966e-01    1.0123335156e+05
    1.1563988030e-01    1.0123335156e+05
    1.1564995348e-01    1.0123335156e+05
    1.1565972865e-01    1.0123334375e+05
    1.1566980183e-01    1.0123333594e+05
    1.1567988247e-01    1.0123333594e+05
    1.1568995565e-01    1.0123332031e+05
    1.1569973081e-01    1.0123331250e+05
    1.1570981145e-01    1.0123330469e+05
    1.1571988463e-01    1.0123328906e+05
    1.1572995782e-01    1.0123328906e+05
    1.1573973298e-01    1.0123328906e+05
    1.1574981362e-01    1.0123328906e+05
    1.1575988680e-01    1.0123328906e+05
    1.1576995999e-01    1.0123328125e+05
    1.1577973515e-01    1.0123327344e+05
    1.1578981578e-01    1.0123325781e+05
    1.1579988897e-01    1.0123322656e+05
    1.1580996215e-01    1.0123321875e+05
    1.1581973732e-01    1.0123321094e+05
    1.1582981795e-01    1.0123317969e+05
    1.1583989114e-01    1.0123316406e+05
    1.1584996432e-01    1.0123315625e+05
    1.1585974693e-01    1.0123314844e+05
    1.1586982012e-01    1.0123314844e+05
    1.1587989330e-01    1.0123313281e+05
    1.1588996649e-01    1.0123313281e+05
    1.1589974910e-01    1.0123312500e+05
    1.1590982229e-01    1.0123312500e+05
    1.1591989547e-01    1.0123311719e+05
    1.1592996866e-01    1.0123311719e+05
    1.1593975127e-01    1.0123310156e+05
    1.1594982445e-01    1.0123309375e+05
    1.1595989764e-01    1.0123308594e+05
    1.1596997082e-01    1.0123307031e+05
    1.1597975343e-01    1.0123306250e+05
    1.1598982662e-01    1.0123303906e+05
    1.1599989980e-01    1.0123303906e+05
    1.1600997299e-01    1.0123302344e+05
    1.1601975560e-01    1.0123302344e+05
    1.1602982879e-01    1.0123300000e+05
    1.1603990197e-01    1.0123299219e+05
    1.1604997516e-01    1.0123297656e+05
    1.1605975777e-01    1.0123296875e+05
    1.1606983095e-01    1.0123296094e+05
    1.1607990414e-01    1.0123296094e+05
    1.1608997732e-01    1.0123294531e+05
    1.1609975994e-01    1.0123293750e+05
    1.1610983312e-01    1.0123292969e+05
    1.1611990631e-01    1.0123291406e+05
    1.1612997949e-01    1.0123291406e+05
    1.1613976210e-01    1.0123290625e+05
    1.1614983529e-01    1.0123290625e+05
    1.1615990847e-01    1.0123289844e+05
    1.1616998911e-01    1.0123289844e+05
    1.1617976427e-01    1.0123288281e+05
    1.1618983746e-01    1.0123287500e+05
    1.1619991064e-01    1.0123286719e+05
    1.1620999128e-01    1.0123285156e+05
    1.1621976644e-01    1.0123285156e+05
    1.1622983962e-01    1.0123284375e+05
    1.1623991281e-01    1.0123283594e+05
    1.1624999344e-01    1.0123283594e+05
    1.1625976861e-01    1.0123282031e+05
    1.1626984179e-01    1.0123282031e+05
    1.1627991498e-01    1.0123281250e+05
    1.1628999561e-01    1.0123281250e+05
    1.1629977077e-01    1.0123280469e+05
    1.1630984396e-01    1.0123280469e+05
    1.1631992459e-01    1.0123278906e+05
    1.1632999778e-01    1.0123278906e+05
    1.1633977294e-01    1.0123278906e+05
    1.1634984612e-01    1.0123278125e+05
    1.1635992676e-01    1.0123277344e+05
    1.1636999995e-01    1.0123275000e+05
    1.1637977511e-01    1.0123272656e+05
    1.1638984829e-01    1.0123271875e+05
    1.1639992893e-01    1.0123271094e+05
    1.1640970409e-01    1.0123269531e+05
    1.1641977727e-01    1.0123267969e+05
    1.1642985791e-01    1.0123266406e+05
    1.1643993109e-01    1.0123266406e+05
    1.1644970626e-01    1.0123265625e+05
    1.1645977944e-01    1.0123264844e+05
    1.1646986008e-01    1.0123264844e+05
    1.1647993326e-01    1.0123264844e+05
    1.1648970842e-01    1.0123263281e+05
    1.1649978161e-01    1.0123262500e+05
    1.1650986224e-01    1.0123261719e+05
    1.1651993543e-01    1.0123260156e+05
    1.1652971059e-01    1.0123260156e+05
    1.1653978378e-01    1.0123259375e+05
    1.1654986441e-01    1.0123258594e+05
    1.1655993760e-01    1.0123258594e+05
    1.1656971276e-01    1.0123257031e+05
    1.1657979339e-01    1.0123256250e+05
    1.1658986658e-01    1.0123255469e+05
    1.1659993976e-01    1.0123253906e+05
    1.1660971493e-01    1.0123253906e+05
    1.1661979556e-01    1.0123253906e+05
    1.1662986875e-01    1.0123253125e+05
    1.1663994193e-01    1.0123252344e+05
    1.1664971709e-01    1.0123252344e+05
    1.1665979773e-01    1.0123250781e+05
    1.1666987091e-01    1.0123250000e+05
    1.1667994410e-01    1.0123249219e+05
    1.1668971926e-01    1.0123247656e+05
    1.1669979990e-01    1.0123247656e+05
    1.1670987308e-01    1.0123246875e+05
    1.1671994627e-01    1.0123246094e+05
    1.1672972888e-01    1.0123246094e+05
    1.1673980206e-01    1.0123244531e+05
    1.1674987525e-01    1.0123243750e+05
    1.1675994843e-01    1.0123241406e+05
    1.1676973104e-01    1.0123241406e+05
    1.1677980423e-01    1.0123240625e+05
    1.1678987741e-01    1.0123239844e+05
    1.1679995060e-01    1.0123238281e+05
    1.1680973321e-01    1.0123236719e+05
    1.1681980640e-01    1.0123235156e+05
    1.1682987958e-01    1.0123234375e+05
    1.1683995277e-01    1.0123233594e+05
    1.1684973538e-01    1.0123233594e+05
    1.1685980856e-01    1.0123232031e+05
    1.1686988175e-01    1.0123231250e+05
    1.1687995493e-01    1.0123231250e+05
    1.1688973755e-01    1.0123230469e+05
    1.1689981073e-01    1.0123228906e+05
    1.1690988392e-01    1.0123228906e+05
    1.1691995710e-01    1.0123228906e+05
    1.1692973971e-01    1.0123228125e+05
    1.1693981290e-01    1.0123228125e+05
    1.1694988608e-01    1.0123227344e+05
    1.1695995927e-01    1.0123225781e+05
    1.1696974188e-01    1.0123225000e+05
    1.1697981507e-01    1.0123224219e+05
    1.1698988825e-01    1.0123222656e+05
    1.1699996144e-01    1.0123221875e+05
    1.1700974405e-01    1.0123221094e+05
    1.1701981723e-01    1.0123221094e+05
    1.1702989042e-01    1.0123219531e+05
    1.1703997105e-01    1.0123218750e+05
    1.1704974622e-01    1.0123217969e+05
    1.1705981940e-01    1.0123216406e+05
    1.1706989259e-01    1.0123216406e+05
    1.1707997322e-01    1.0123215625e+05
    1.1708974838e-01    1.0123214844e+05
    1.1709982157e-01    1.0123214844e+05
    1.1710989475e-01    1.0123213281e+05
    1.1711997539e-01    1.0123212500e+05
    1.1712975055e-01    1.0123212500e+05
    1.1713982373e-01    1.0123211719e+05
    1.1714990437e-01    1.0123211719e+05
    1.1715997756e-01    1.0123210156e+05
    1.1716975272e-01    1.0123210156e+05
    1.1717982590e-01    1.0123209375e+05
    1.1718990654e-01    1.0123208594e+05
    1.1719997972e-01    1.0123208594e+05
    1.1720975488e-01    1.0123206250e+05
    1.1721982807e-01    1.0123205469e+05
    1.1722990870e-01    1.0123203906e+05
    1.1723998189e-01    1.0123203125e+05
    1.1724975705e-01    1.0123202344e+05
    1.1725983024e-01    1.0123202344e+05
    1.1726991087e-01    1.0123200781e+05
    1.1727998406e-01    1.0123200781e+05
    1.1728975922e-01    1.0123200000e+05
    1.1729983985e-01    1.0123199219e+05
    1.1730991304e-01    1.0123197656e+05
    1.1731998622e-01    1.0123197656e+05
    1.1732976139e-01    1.0123197656e+05
    1.1733984202e-01    1.0123196875e+05
    1.1734991521e-01    1.0123196094e+05
    1.1735998839e-01    1.0123196094e+05
    1.1736976355e-01    1.0123194531e+05
    1.1737984419e-01    1.0123193750e+05
    1.1738991737e-01    1.0123192969e+05
    1.1739999056e-01    1.0123191406e+05
    1.1740977317e-01    1.0123191406e+05
    1.1741984636e-01    1.0123189844e+05
    1.1742991954e-01    1.0123189844e+05
    1.1743999273e-01    1.0123188281e+05
    1.1744977534e-01    1.0123186719e+05
    1.1745984852e-01    1.0123185156e+05
    1.1746992171e-01    1.0123185156e+05
    1.1747999489e-01    1.0123184375e+05
    1.1748977751e-01    1.0123183594e+05
    1.1749985069e-01    1.0123183594e+05
    1.1750992388e-01    1.0123182031e+05
    1.1751999706e-01    1.0123180469e+05
    1.1752977967e-01    1.0123178906e+05
    1.1753985286e-01    1.0123178906e+05
    1.1754992604e-01    1.0123178125e+05
    1.1755970865e-01    1.0123177344e+05
    1.1756978184e-01    1.0123175781e+05
    1.1757985502e-01    1.0123175000e+05
    1.1758992821e-01    1.0123174219e+05
    1.1759971082e-01    1.0123172656e+05
    1.1760978401e-01    1.0123172656e+05
    1.1761985719e-01    1.0123171875e+05
    1.1762993038e-01    1.0123171094e+05
    1.1763971299e-01    1.0123171094e+05
    1.1764978617e-01    1.0123169531e+05
    1.1765985936e-01    1.0123168750e+05
    1.1766993254e-01    1.0123167969e+05
    1.1767971516e-01    1.0123166406e+05
    1.1768978834e-01    1.0123166406e+05
    1.1769986153e-01    1.0123165625e+05
    1.1770993471e-01    1.0123164844e+05
    1.1771971732e-01    1.0123164844e+05
    1.1772979051e-01    1.0123163281e+05
    1.1773986369e-01    1.0123162500e+05
    1.1774993688e-01    1.0123160156e+05
    1.1775971949e-01    1.0123160156e+05
    1.1776979268e-01    1.0123159375e+05
    1.1777986586e-01    1.0123158594e+05
    1.1778994650e-01    1.0123158594e+05
    1.1779972166e-01    1.0123157031e+05
    1.1780979484e-01    1.0123156250e+05
    1.1781986803e-01    1.0123155469e+05
    1.1782994866e-01    1.0123153906e+05
    1.1783972383e-01    1.0123153906e+05
    1.1784979701e-01    1.0123153125e+05
    1.1785987020e-01    1.0123153125e+05
    1.1786995083e-01    1.0123152344e+05
    1.1787972599e-01    1.0123152344e+05
    1.1788979918e-01    1.0123150781e+05
    1.1789987981e-01    1.0123150000e+05
    1.1790995300e-01    1.0123149219e+05
    1.1791972816e-01    1.0123147656e+05
    1.1792980134e-01    1.0123146875e+05
    1.1793988198e-01    1.0123146094e+05
    1.1794995517e-01    1.0123146094e+05
    1.1795973033e-01    1.0123144531e+05
    1.1796980351e-01    1.0123143750e+05
    1.1797988415e-01    1.0123142969e+05
    1.1798995733e-01    1.0123141406e+05
    1.1799973249e-01    1.0123141406e+05
    1.1800981313e-01    1.0123140625e+05
    1.1801988631e-01    1.0123139844e+05
    1.1802995950e-01    1.0123139844e+05
    1.1803973466e-01    1.0123139844e+05
    1.1804981530e-01    1.0123138281e+05
    1.1805988848e-01    1.0123137500e+05
    1.1806996167e-01    1.0123136719e+05
    1.1807973683e-01    1.0123135156e+05
    1.1808981746e-01    1.0123135156e+05
    1.1809989065e-01    1.0123134375e+05
    1.1810996383e-01    1.0123133594e+05
    1.1811974645e-01    1.0123133594e+05
    1.1812981963e-01    1.0123132031e+05
    1.1813989282e-01    1.0123131250e+05
    1.1814996600e-01    1.0123130469e+05
    1.1815974861e-01    1.0123128906e+05
    1.1816982180e-01    1.0123128906e+05
    1.1817989498e-01    1.0123127344e+05
    1.1818996817e-01    1.0123127344e+05
    1.1819975078e-01    1.0123125000e+05
    1.1820982397e-01    1.0123122656e+05
    1.1821989715e-01    1.0123121875e+05
    1.1822997034e-01    1.0123121094e+05
    1.1823975295e-01    1.0123119531e+05
    1.1824982613e-01    1.0123117969e+05
    1.1825989932e-01    1.0123116406e+05
    1.1826997250e-01    1.0123115625e+05
    1.1827975512e-01    1.0123114844e+05
    1.1828982830e-01    1.0123114844e+05
    1.1829990149e-01    1.0123114844e+05
    1.1830997467e-01    1.0123114844e+05
    1.1831975728e-01    1.0123114844e+05
    1.1832983047e-01    1.0123114844e+05
    1.1833990365e-01    1.0123114844e+05
    1.1834998429e-01    1.0123113281e+05
    1.1835975945e-01    1.0123113281e+05
    1.1836983263e-01    1.0123112500e+05
    1.1837990582e-01    1.0123112500e+05
    1.1838998646e-01    1.0123111719e+05
    1.1839976162e-01    1.0123110156e+05
    1.1840983480e-01    1.0123109375e+05
    1.1841990799e-01    1.0123108594e+05
    1.1842998862e-01    1.0123108594e+05
    1.1843976378e-01    1.0123108594e+05
    1.1844983697e-01    1.0123107031e+05
    1.1845991760e-01    1.0123107031e+05
    1.1846999079e-01    1.0123107031e+05
    1.1847976595e-01    1.0123107031e+05
    1.1848983914e-01    1.0123106250e+05
    1.1849991977e-01    1.0123106250e+05
    1.1850999296e-01    1.0123105469e+05
    1.1851976812e-01    1.0123103906e+05
    1.1852984130e-01    1.0123103906e+05
    1.1853992194e-01    1.0123102344e+05
    1.1854999512e-01    1.0123100781e+05
    1.1855977029e-01    1.0123099219e+05
    1.1856985092e-01    1.0123097656e+05
    1.1857992411e-01    1.0123096094e+05
    1.1858999729e-01    1.0123096094e+05
    1.1859977245e-01    1.0123094531e+05
    1.1860985309e-01    1.0123094531e+05
    1.1861992627e-01    1.0123094531e+05
    1.1862999946e-01    1.0123096094e+05
    1.1863977462e-01    1.0123096094e+05
    1.1864985526e-01    1.0123096094e+05
    1.1865992844e-01    1.0123094531e+05
    1.1866970360e-01    1.0123093750e+05
    1.1867978424e-01    1.0123092969e+05
    1.1868985742e-01    1.0123091406e+05
    1.1869993061e-01    1.0123089844e+05
    1.1870970577e-01    1.0123089844e+05
    1.1871978641e-01    1.0123088281e+05
    1.1872985959e-01    1.0123087500e+05
    1.1873993278e-01    1.0123086719e+05
    1.1874970794e-01    1.0123085156e+05
    1.1875978857e-01    1.0123085156e+05
    1.1876986176e-01    1.0123085156e+05
    1.1877993494e-01    1.0123084375e+05
    1.1878971756e-01    1.0123083594e+05
    1.1879979074e-01    1.0123082031e+05
    1.1880986392e-01    1.0123080469e+05
    1.1881993711e-01    1.0123078906e+05
    1.1882971972e-01    1.0123078125e+05
    1.1883979291e-01    1.0123077344e+05
    1.1884986609e-01    1.0123077344e+05
    1.1885993928e-01    1.0123077344e+05
    1.1886972189e-01    1.0123077344e+05
    1.1887979507e-01    1.0123077344e+05
    1.1888986826e-01    1.0123077344e+05
    1.1889994144e-01    1.0123077344e+05
    1.1890972406e-01    1.0123077344e+05
    1.1891979724e-01    1.0123077344e+05
    1.1892987043e-01    1.0123075781e+05
    1.1893994361e-01    1.0123075000e+05
    1.1894972622e-01    1.0123074219e+05
    1.1895979941e-01    1.0123072656e+05
    1.1896987259e-01    1.0123071875e+05
    1.1897994578e-01    1.0123071094e+05
    1.1898972839e-01    1.0123068750e+05
    1.1899980158e-01    1.0123066406e+05
    1.1900987476e-01    1.0123065625e+05
    1.1901995540e-01    1.0123064844e+05
    1.1902973056e-01    1.0123063281e+05
    1.1903980374e-01    1.0123061719e+05
    1.1904987693e-01    1.0123060156e+05
    1.1905995756e-01    1.0123059375e+05
    1.1906973273e-01    1.0123058594e+05
    1.1907980591e-01    1.0123057031e+05
    1.1908987910e-01    1.0123055469e+05
    1.1909995973e-01    1.0123053906e+05
    1.1910973489e-01    1.0123052344e+05
    1.1911980808e-01    1.0123052344e+05
    1.1912988871e-01    1.0123050000e+05
    1.1913996190e-01    1.0123050000e+05
    1.1914973706e-01    1.0123050000e+05
    1.1915981025e-01    1.0123050000e+05
    1.1916989088e-01    1.0123050781e+05
    1.1917996407e-01    1.0123052344e+05
    1.1918973923e-01    1.0123052344e+05
    1.1919981241e-01    1.0123052344e+05
    1.1920989305e-01    1.0123052344e+05
    1.1921996623e-01    1.0123052344e+05
    1.1922974139e-01    1.0123050781e+05
    1.1923982203e-01    1.0123050000e+05
    1.1924989522e-01    1.0123047656e+05
    1.1925996840e-01    1.0123046875e+05
    1.1926974356e-01    1.0123046094e+05
    1.1927982420e-01    1.0123043750e+05
    1.1928989738e-01    1.0123041406e+05
    1.1929997057e-01    1.0123040625e+05
    1.1930974573e-01    1.0123039844e+05
    1.1931982636e-01    1.0123037500e+05
    1.1932989955e-01    1.0123035156e+05
    1.1933997273e-01    1.0123035156e+05
    1.1934975535e-01    1.0123034375e+05
    1.1935982853e-01    1.0123033594e+05
    1.1936990172e-01    1.0123033594e+05
    1.1937997490e-01    1.0123032031e+05
    1.1938975751e-01    1.0123031250e+05
    1.1939983070e-01    1.0123031250e+05
    1.1940990388e-01    1.0123031250e+05
    1.1941997707e-01    1.0123031250e+05
    1.1942975968e-01    1.0123031250e+05
    1.1943983287e-01    1.0123031250e+05
    1.1944990605e-01    1.0123031250e+05
    1.1945997924e-01    1.0123031250e+05
    1.1946976185e-01    1.0123030469e+05
    1.1947983503e-01    1.0123028906e+05
    1.1948990822e-01    1.0123027344e+05
    1.1949998140e-01    1.0123025781e+05
    1.1950976402e-01    1.0123024219e+05
    1.1951983720e-01    1.0123022656e+05
    1.1952991039e-01    1.0123022656e+05
    1.1953998357e-01    1.0123022656e+05
    1.1954976618e-01    1.0123022656e+05
    1.1955983937e-01    1.0123022656e+05
    1.1956991255e-01    1.0123022656e+05
    1.1957999319e-01    1.0123022656e+05
    1.1958976835e-01    1.0123022656e+05
    1.1959984154e-01    1.0123022656e+05
    1.1960991472e-01    1.0123021875e+05
    1.1961999536e-01    1.0123021094e+05
    1.1962977052e-01    1.0123018750e+05
    1.1963984370e-01    1.0123016406e+05
    1.1964992434e-01    1.0123015625e+05
    1.1965999752e-01    1.0123014844e+05
    1.1966977268e-01    1.0123013281e+05
    1.1967984587e-01    1.0123013281e+05
    1.1968992651e-01    1.0123012500e+05
    1.1969999969e-01    1.0123012500e+05
    1.1970977485e-01    1.0123012500e+05
    1.1971984804e-01    1.0123012500e+05
    1.1972992867e-01    1.0123012500e+05
    1.1973970383e-01    1.0123011719e+05
    1.1974977702e-01    1.0123010156e+05
    1.1975985765e-01    1.0123009375e+05
    1.1976993084e-01    1.0123007031e+05
    1.1977970600e-01    1.0123005469e+05
    1.1978977919e-01    1.0123003125e+05
    1.1979985982e-01    1.0123002344e+05
    1.1980993301e-01    1.0123000000e+05
    1.1981970817e-01    1.0122997656e+05
    1.1982978135e-01    1.0122997656e+05
    1.1983986199e-01    1.0122996875e+05
    1.1984993517e-01    1.0122996875e+05
    1.1985971034e-01    1.0122996875e+05
    1.1986979097e-01    1.0122996094e+05
    1.1987986416e-01    1.0122996094e+05
    1.1988993734e-01    1.0122996094e+05
    1.1989971250e-01    1.0122996094e+05
    1.1990979314e-01    1.0122996094e+05
    1.1991986632e-01    1.0122996094e+05
    1.1992993951e-01    1.0122996094e+05
    1.1993971467e-01    1.0122994531e+05
    1.1994979531e-01    1.0122993750e+05
    1.1995986849e-01    1.0122991406e+05
    1.1996994168e-01    1.0122991406e+05
    1.1997972429e-01    1.0122990625e+05
    1.1998979747e-01    1.0122989844e+05
    1.1999987066e-01    1.0122988281e+05
endcurve
