Curveplot
LS-DYNA keyword deck by LS-PrePost                          
Time
Pressure
Defined Connection
Pressure @ 13 #pts=12001
* Minval=     7.9474101562e+04 at time=         0.0187397525
* Maxval=     2.4080642188e+05 at time=         0.0076499949
    0.0000000000e+00    1.0120000000e+05
    9.9485323517e-06    1.0120000000e+05
    1.9897432139e-05    1.0120000000e+05
    2.9949662348e-05    1.0120000000e+05
    3.9958817069e-05    1.0120000000e+05
    4.9998594477e-05    1.0120000000e+05
    5.9946691181e-05    1.0120000000e+05
    6.9980866101e-05    1.0120000000e+05
    7.9975681729e-05    1.0120000000e+05
    8.9942855993e-05    1.0120000000e+05
    9.9963210232e-05    1.0120000000e+05
    1.0997567733e-04    1.0120000000e+05
    1.1997246474e-04    1.0120000000e+05
    1.2994048302e-04    1.0120000000e+05
    1.3994229084e-04    1.0120000000e+05
    1.4997269318e-04    1.0120000000e+05
    1.5995185822e-04    1.0120000000e+05
    1.6994621546e-04    1.0120000000e+05
    1.7995006056e-04    1.0120000000e+05
    1.8995697610e-04    1.0120000000e+05
    1.9996124320e-04    1.0120000000e+05
    2.0995673549e-04    1.0120000000e+05
    2.1993687551e-04    1.0120000000e+05
    2.2997763881e-04    1.0120000000e+05
    2.3999286350e-04    1.0120000000e+05
    2.4997568107e-04    1.0120000000e+05
    2.5991993607e-04    1.0120000000e+05
    2.6999291731e-04    1.0120000000e+05
    2.7993097319e-04    1.0120000000e+05
    2.8999062488e-04    1.0120000000e+05
    2.9999055550e-04    1.0120000000e+05
    3.0992750544e-04    1.0120000000e+05
    3.1997670885e-04    1.0120000000e+05
    3.2995041693e-04    1.0120000000e+05
    3.3993669786e-04    1.0120000000e+05
    3.4993109875e-04    1.0120000000e+05
    3.5992189078e-04    1.0120000000e+05
    3.6999618169e-04    1.0120000000e+05
    3.7996342871e-04    1.0120000000e+05
    3.8991621113e-04    1.0120000000e+05
    3.9995161933e-04    1.0120000000e+05
    4.0996912867e-04    1.0120000000e+05
    4.1997022345e-04    1.0120000000e+05
    4.2995173135e-04    1.0120000000e+05
    4.3991199345e-04    1.0120000000e+05
    4.4995039934e-04    1.0120000000e+05
    4.5996767585e-04    1.0120000000e+05
    4.6996059245e-04    1.0120000000e+05
    4.7992743202e-04    1.0120000000e+05
    4.8996921396e-04    1.0120000000e+05
    4.9998704344e-04    1.0120000000e+05
    5.0997582730e-04    1.0120000000e+05
    5.1993393572e-04    1.0120000000e+05
    5.2996800514e-04    1.0120000000e+05
    5.3997064242e-04    1.0120000000e+05
    5.4994015954e-04    1.0120000000e+05
    5.5998633616e-04    1.0120000000e+05
    5.6999729713e-04    1.0120000000e+05
    5.7996914256e-04    1.0120000000e+05
    5.8990425896e-04    1.0120000000e+05
    5.9991440503e-04    1.0120000000e+05
    6.0988403857e-04    1.0120000000e+05
    6.1992870178e-04    1.0120000000e+05
    6.2992901076e-04    1.0120000000e+05
    6.3988764305e-04    1.0120000000e+05
    6.4992054831e-04    1.0120000000e+05
    6.5990776056e-04    1.0120000000e+05
    6.6996930400e-04    1.0120000000e+05
    6.7998346640e-04    1.0120000000e+05
    6.8994605681e-04    1.0120000000e+05
    6.9998443360e-04    1.0120000000e+05
    7.0997187868e-04    1.0120000000e+05
    7.1990652941e-04    1.0120000000e+05
    7.2991376510e-04    1.0120000000e+05
    7.3999434244e-04    1.0120000000e+05
    7.4988871347e-04    1.0120000000e+05
    7.5998716056e-04    1.0120000000e+05
    7.6989817899e-04    1.0120000000e+05
    7.7988067642e-04    1.0120000000e+05
    7.8993546776e-04    1.0120000000e+05
    7.9992978135e-04    1.0120000000e+05
    8.0999534111e-04    1.0120000000e+05
    8.1999727990e-04    1.0120000000e+05
    8.2993658725e-04    1.0120000000e+05
    8.3994684974e-04    1.0120000000e+05
    8.4989034804e-04    1.0120000000e+05
    8.5990462685e-04    1.0120000000e+05
    8.6999038467e-04    1.0120000000e+05
    8.7986333529e-04    1.0120000000e+05
    8.8994577527e-04    1.0120000000e+05
    8.9996121824e-04    1.0120000000e+05
    9.0990302851e-04    1.0120000000e+05
    9.1991457157e-04    1.0120000000e+05
    9.2999666231e-04    1.0120000000e+05
    9.3985488638e-04    1.0120000000e+05
    9.4992981758e-04    1.0120000000e+05
    9.5992599381e-04    1.0120000000e+05
    9.6998800291e-04    1.0120000000e+05
    9.7997242119e-04    1.0120000000e+05
    9.8987319507e-04    1.0120000000e+05
    9.9999562372e-04    1.0120000000e+05
    1.0098790517e-03    1.0120000000e+05
    1.0199855315e-03    1.0120000000e+05
    1.0298480047e-03    1.0120000000e+05
    1.0399352759e-03    1.0120000000e+05
    1.0499326745e-03    1.0120000000e+05
    1.0599982925e-03    1.0120000000e+05
    1.0699668201e-03    1.0120000000e+05
    1.0798444273e-03    1.0120000000e+05
    1.0899517220e-03    1.0120000000e+05
    1.0999630904e-03    1.0120000000e+05
    1.1098759715e-03    1.0120000000e+05
    1.1198547436e-03    1.0120000000e+05
    1.1298998725e-03    1.0120000000e+05
    1.1398429051e-03    1.0120000000e+05
    1.1498517124e-03    1.0120000000e+05
    1.1599266436e-03    1.0120000000e+05
    1.1698961025e-03    1.0120000000e+05
    1.1799308704e-03    1.0120000000e+05
    1.1898569064e-03    1.0120000000e+05
    1.1998411501e-03    1.0120000000e+05
    1.2098965235e-03    1.0120000000e+05
    1.2198393233e-03    1.0120000000e+05
    1.2298461515e-03    1.0120000000e+05
    1.2399174739e-03    1.0120000000e+05
    1.2498724973e-03    1.0120000000e+05
    1.2598910835e-03    1.0120000000e+05
    1.2699735817e-03    1.0120000000e+05
    1.2799359392e-03    1.0120000000e+05
    1.2899613939e-03    1.0120000000e+05
    1.2998632155e-03    1.0120000000e+05
    1.3098269701e-03    1.0120000000e+05
    1.3198534725e-03    1.0120000000e+05
    1.3299434213e-03    1.0120000000e+05
    1.3399051968e-03    1.0120000000e+05
    1.3499292545e-03    1.0120000000e+05
    1.3598200167e-03    1.0120000000e+05
    1.3699604897e-03    1.0120000000e+05
    1.3799676672e-03    1.0120000000e+05
    1.3898391044e-03    1.0120000000e+05
    1.3999777148e-03    1.0120000000e+05
    1.4099813998e-03    1.0120000000e+05
    1.4198452700e-03    1.0120000000e+05
    1.4299723553e-03    1.0120000000e+05
    1.4399583451e-03    1.0120000000e+05
    1.4497999800e-03    1.0120000000e+05
    1.4599082060e-03    1.0120000000e+05
    1.4698707964e-03    1.0120000000e+05
    1.4798943885e-03    1.0120000000e+05
    1.4899796806e-03    1.0120000000e+05
    1.4999149134e-03    1.0120000000e+05
    1.5099106822e-03    1.0120000000e+05
    1.5199672198e-03    1.0120000000e+05
    1.5298697399e-03    1.0120000000e+05
    1.5398318646e-03    1.0120000000e+05
    1.5498542925e-03    1.0120000000e+05
    1.5599378385e-03    1.0120000000e+05
    1.5698618954e-03    1.0120000000e+05
    1.5798459062e-03    1.0120000000e+05
    1.5898903366e-03    1.0120000000e+05
    1.5999958850e-03    1.0120000000e+05
    1.6099363565e-03    1.0120000000e+05
    1.6199371312e-03    1.0120000000e+05
    1.6299980925e-03    1.0120000000e+05
    1.6398897860e-03    1.0120000000e+05
    1.6498401528e-03    1.0120000000e+05
    1.6598514048e-03    1.0120000000e+05
    1.6699221451e-03    1.0120000000e+05
    1.6798174474e-03    1.0120000000e+05
    1.6897718888e-03    1.0120000000e+05
    1.6997864004e-03    1.0120000000e+05
    1.7098614480e-03    1.0120000000e+05
    1.7199974973e-03    1.0120000000e+05
    1.7299518222e-03    1.0120000000e+05
    1.7399670323e-03    1.0120000000e+05
    1.7497964436e-03    1.0120000000e+05
    1.7599309795e-03    1.0120000000e+05
    1.7698791344e-03    1.0120000000e+05
    1.7798859626e-03    1.0120000000e+05
    1.7899541417e-03    1.0120000000e+05
    1.7998288386e-03    1.0120000000e+05
    1.8097624416e-03    1.0120000000e+05
    1.8197559984e-03    1.0120000000e+05
    1.8298098585e-03    1.0120000000e+05
    1.8399246037e-03    1.0120000000e+05
    1.8498393474e-03    1.0120000000e+05
    1.8598135794e-03    1.0120000000e+05
    1.8698478816e-03    1.0120000000e+05
    1.8799431855e-03    1.0120000000e+05
    1.8898324342e-03    1.0120000000e+05
    1.8997805892e-03    1.0120000000e+05
    1.9097885815e-03    1.0120000000e+05
    1.9198576920e-03    1.0120000000e+05
    1.9299880369e-03    1.0120000000e+05
    1.9399045268e-03    1.0120000000e+05
    1.9498809706e-03    1.0120000000e+05
    1.9599176012e-03    1.0120000000e+05
    1.9697342068e-03    1.0120000000e+05
    1.9798928406e-03    1.0120000000e+05
    1.9898295868e-03    1.0120000000e+05
    1.9998266362e-03    1.0120000000e+05
    2.0098846871e-03    1.0120000000e+05
    2.0197147969e-03    1.0120000000e+05
    2.0298887976e-03    1.0120000000e+05
    2.0398320630e-03    1.0120000000e+05
    2.0498347003e-03    1.0120000000e+05
    2.0598985720e-03    1.0120000000e+05
    2.0697345026e-03    1.0120000000e+05
    2.0799313206e-03    1.0120000000e+05
    2.0898899529e-03    1.0120000000e+05
    2.0999095868e-03    1.0120000000e+05
    2.1099913865e-03    1.0120000000e+05
    2.1198280156e-03    1.0120000000e+05
    2.1297244821e-03    1.0120000000e+05
    2.1399939433e-03    1.0120000000e+05
    2.1497008856e-03    1.0120000000e+05
    2.1597826853e-03    1.0120000000e+05
    2.1699278150e-03    1.0120000000e+05
    2.1798172966e-03    1.0120000000e+05
    2.1897682454e-03    1.0120000000e+05
    2.1997811273e-03    1.0120000000e+05
    2.2098573390e-03    1.0120000000e+05
    2.2199975792e-03    1.0120000000e+05
    2.2298721597e-03    1.0120000000e+05
    2.2398086730e-03    1.0120000000e+05
    2.2498068865e-03    1.0120000000e+05
    2.2598630749e-03    1.0120000000e+05
    2.2699900437e-03    1.0120000000e+05
    2.2798415739e-03    1.0120000000e+05
    2.2897552699e-03    1.0120000000e+05
    2.2997318301e-03    1.0120000000e+05
    2.3097724188e-03    1.0120000000e+05
    2.3198777344e-03    1.0120000000e+05
    2.3296971340e-03    1.0120000000e+05
    2.3399330676e-03    1.0120000000e+05
    2.3498805240e-03    1.0120000000e+05
    2.3598922417e-03    1.0120000000e+05
    2.3699689191e-03    1.0120000000e+05
    2.3797487374e-03    1.0120000000e+05
    2.3899571970e-03    1.0120000000e+05
    2.3998655379e-03    1.0120000000e+05
    2.4098383728e-03    1.0120000000e+05
    2.4198715109e-03    1.0120000000e+05
    2.4299770594e-03    1.0120000000e+05
    2.4397720117e-03    1.0120000000e+05
    2.4496312253e-03    1.0120000000e+05
    2.4599381723e-03    1.0120000000e+05
    2.4699305650e-03    1.0120000000e+05
    2.4799900129e-03    1.0120000000e+05
    2.4897267576e-03    1.0120000000e+05
    2.4999210145e-03    1.0120000000e+05
    2.5097897742e-03    1.0120000000e+05
    2.5197246578e-03    1.0120000000e+05
    2.5297270622e-03    1.0120000000e+05
    2.5397976860e-03    1.0120000000e+05
    2.5499376934e-03    1.0120000000e+05
    2.5597347412e-03    1.0120000000e+05
    2.5696028024e-03    1.0120000000e+05
    2.5799535215e-03    1.0120000000e+05
    2.5899608154e-03    1.0120000000e+05
    2.5996167678e-03    1.0120000000e+05
    2.6097621303e-03    1.0120000000e+05
    2.6199801359e-03    1.0120000000e+05
    2.6298414450e-03    1.0120000000e+05
    2.6397707406e-03    1.0120000000e+05
    2.6497538202e-03    1.0120000000e+05
    2.6597774122e-03    1.0120000000e+05
    2.6698331349e-03    1.0120000000e+05
    2.6799233165e-03    1.0120000000e+05
    2.6895971969e-03    1.0120000000e+05
    2.6997323148e-03    1.0120000000e+05
    2.7098769788e-03    1.0120000000e+05
    2.7196074370e-03    1.0120000000e+05
    2.7298186906e-03    1.0120000000e+05
    2.7399905957e-03    1.0120000000e+05
    2.7497564442e-03    1.0120000000e+05
    2.7599593159e-03    1.0120000000e+05
    2.7697277255e-03    1.0120000000e+05
    2.7799303643e-03    1.0120000000e+05
    2.7897150721e-03    1.0120000000e+05
    2.7999049053e-03    1.0120000000e+05
    2.8096369933e-03    1.0120000000e+05
    2.8198319487e-03    1.0120000000e+05
    2.8295943048e-03    1.0120000000e+05
    2.8397876304e-03    1.0120000000e+05
    2.8499567416e-03    1.0120000000e+05
    2.8597158380e-03    1.0120000000e+05
    2.8698779643e-03    1.0120000000e+05
    2.8796137776e-03    1.0120000000e+05
    2.8898129240e-03    1.0120000000e+05
    2.8999762144e-03    1.0120000000e+05
    2.9096724465e-03    1.0120000000e+05
    2.9198715929e-03    1.0120000000e+05
    2.9296458233e-03    1.0120000000e+05
    2.9398654588e-03    1.0120000000e+05
    2.9495647177e-03    1.0120000000e+05
    2.9597084504e-03    1.0120000000e+05
    2.9698451981e-03    1.0120000000e+05
    2.9796096496e-03    1.0120000000e+05
    2.9897899367e-03    1.0120000000e+05
    2.9995816294e-03    1.0120000000e+05
    3.0098219868e-03    1.0120000000e+05
    3.0196162406e-03    1.0120000000e+05
    3.0298766214e-03    1.0120000000e+05
    3.0397227965e-03    1.0120000000e+05
    3.0495855026e-03    1.0120000000e+05
    3.0598810408e-03    1.0120000000e+05
    3.0697565526e-03    1.0120000000e+05
    3.0796539504e-03    1.0120000000e+05
    3.0899906997e-03    1.0120000000e+05
    3.0999009032e-03    1.0120000000e+05
    3.1098113395e-03    1.0120000000e+05
    3.1197310891e-03    1.0120000000e+05
    3.1296575908e-03    1.0120000000e+05
    3.1395717524e-03    1.0120000000e+05
    3.1499101315e-03    1.0120000000e+05
    3.1598047353e-03    1.0120000000e+05
    3.1696858350e-03    1.0120000000e+05
    3.1799827702e-03    1.0120000000e+05
    3.1898163725e-03    1.0120000000e+05
    3.1996234320e-03    1.0120000000e+05
    3.2098416705e-03    1.0120000000e+05
    3.2195856329e-03    1.0120000000e+05
    3.2297282014e-03    1.0120000000e+05
    3.2398193143e-03    1.0120000000e+05
    3.2498522196e-03    1.0120000000e+05
    3.2598266844e-03    1.0120000000e+05
    3.2697436400e-03    1.0120000000e+05
    3.2796012238e-03    1.0120000000e+05
    3.2898283098e-03    1.0120000000e+05
    3.2999969553e-03    1.0120000000e+05
    3.3096859697e-03    1.0120000000e+05
    3.3197384328e-03    1.0120000000e+05
    3.3297324553e-03    1.0120000000e+05
    3.3396689687e-03    1.0120000000e+05
    3.3499565907e-03    1.0120000000e+05
    3.3597771544e-03    1.0120000000e+05
    3.3699476626e-03    1.0120000000e+05
    3.3796548378e-03    1.0120000000e+05
    3.3897084650e-03    1.0120000000e+05
    3.3997031860e-03    1.0120000000e+05
    3.4096399322e-03    1.0120000000e+05
    3.4199114889e-03    1.0120000000e+05
    3.4297304228e-03    1.0120000000e+05
    3.4398832358e-03    1.0120000000e+05
    3.4499752801e-03    1.0120000000e+05
    3.4596230835e-03    1.0120000000e+05
    3.4699805547e-03    1.0120000000e+05
    3.4798947163e-03    1.0120000000e+05
    3.4897506703e-03    1.0120000000e+05
    3.4999218769e-03    1.0120000000e+05
    3.5096607171e-03    1.0120000000e+05
    3.5197136458e-03    1.0120000000e+05
    3.5297060385e-03    1.0120000000e+05
    3.5396381281e-03    1.0120000000e+05
    3.5498747602e-03    1.0120000000e+05
    3.5596808884e-03    1.0120000000e+05
    3.5697931889e-03    1.0120000000e+05
    3.5798426252e-03    1.0120000000e+05
    3.5898294300e-03    1.0120000000e+05
    3.5997545347e-03    1.0120000000e+05
    3.6099692807e-03    1.0120000000e+05
    3.6197674926e-03    1.0120000000e+05
    3.6298530176e-03    1.0120000000e+05
    3.6398747470e-03    1.0120000000e+05
    3.6498324480e-03    1.0120000000e+05
    3.6597261205e-03    1.0120000000e+05
    3.6698945332e-03    1.0120000000e+05
    3.6799956579e-03    1.0120000000e+05
    3.6896960810e-03    1.0120000000e+05
    3.6999965087e-03    1.0120000000e+05
    3.7098967005e-03    1.0120000000e+05
    3.7197312340e-03    1.0120000000e+05
    3.7298244424e-03    1.0120000000e+05
    3.7398478016e-03    1.0120000000e+05
    3.7498020101e-03    1.0120000000e+05
    3.7596866023e-03    1.0120000000e+05
    3.7698177621e-03    1.0120000000e+05
    3.7798753474e-03    1.0120000000e+05
    3.7898607552e-03    1.0120000000e+05
    3.7997728214e-03    1.0120000000e+05
    3.8099188823e-03    1.0120000000e+05
    3.8199883420e-03    1.0120000000e+05
    3.8299809676e-03    1.0120000000e+05
    3.8398967590e-03    1.0120000000e+05
    3.8497364148e-03    1.0120000000e+05
    3.8597944658e-03    1.0120000000e+05
    3.8697717246e-03    1.0120000000e+05
    3.8799580652e-03    1.0120000000e+05
    3.8897718769e-03    1.0120000000e+05
    3.8997898810e-03    1.0120000000e+05
    3.9097219706e-03    1.0120000000e+05
    3.9198491722e-03    1.0120000000e+05
    3.9298860356e-03    1.0120000000e+05
    3.9398320951e-03    1.0120000000e+05
    3.9499602281e-03    1.0120000000e+05
    3.9599924348e-03    1.0120000000e+05
    3.9699282497e-03    1.0120000000e+05
    3.9797672071e-03    1.0120000000e+05
    3.9897719398e-03    1.0120000000e+05
    3.9999336004e-03    1.0120000000e+05
    4.0099867620e-03    1.0120000000e+05
    4.0199314244e-03    1.0120000000e+05
    4.0297657251e-03    1.0120000000e+05
    4.0399860591e-03    1.0120000000e+05
    4.0498389862e-03    1.0120000000e+05
    4.0598167107e-03    1.0120000000e+05
    4.0699085221e-03    1.0120000000e+05
    4.0798680857e-03    1.0120000000e+05
    4.0899268351e-03    1.0120000000e+05
    4.0998444892e-03    1.0120000000e+05
    4.1098450311e-03    1.0120000000e+05
    4.1199154221e-03    1.0120000000e+05
    4.1298246942e-03    1.0120000000e+05
    4.1397851892e-03    1.0120000000e+05
    4.1499929503e-03    1.0120000000e+05
    4.1598007083e-03    1.0120000000e+05
    4.1698236018e-03    1.0120000000e+05
    4.1798329912e-03    1.0120000000e+05
    4.1898097843e-03    1.0120000000e+05
    4.1999211535e-03    1.0120000000e+05
    4.2099435814e-03    1.0120000000e+05
    4.2198514566e-03    1.0120000000e+05
    4.2299549095e-03    1.0120000000e+05
    4.2398506775e-03    1.0120000000e+05
    4.2499643750e-03    1.0120000000e+05
    4.2598713189e-03    1.0120000000e+05
    4.2698811740e-03    1.0120000000e+05
    4.2799995281e-03    1.0120000000e+05
    4.2899781838e-03    1.0120000000e+05
    4.2999773286e-03    1.0120000000e+05
    4.3099755421e-03    1.0120000000e+05
    4.3199150823e-03    1.0120000000e+05
    4.3298657984e-03    1.0120000000e+05
    4.3399375863e-03    1.0120000000e+05
    4.3499823660e-03    1.0120000000e+05
    4.3599684723e-03    1.0120000000e+05
    4.3699480593e-03    1.0120000000e+05
    4.3799215928e-03    1.0120000000e+05
    4.3899263255e-03    1.0120000000e+05
    4.3998826295e-03    1.0120000000e+05
    4.4098468497e-03    1.0120000000e+05
    4.4198837131e-03    1.0120000000e+05
    4.4298903085e-03    1.0120000000e+05
    4.4398307800e-03    1.0120000000e+05
    4.4498713687e-03    1.0120000000e+05
    4.4599999674e-03    1.0120000000e+05
    4.4698659331e-03    1.0120000000e+05
    4.4799884781e-03    1.0120000000e+05
    4.4898232445e-03    1.0120000000e+05
    4.4999155216e-03    1.0120000000e+05
    4.5098871924e-03    1.0120000000e+05
    4.5199287124e-03    1.0120000000e+05
    4.5298403129e-03    1.0120000000e+05
    4.5398129150e-03    1.0120000000e+05
    4.5498409308e-03    1.0120000000e+05
    4.5599304140e-03    1.0120000000e+05
    4.5698671602e-03    1.0120000000e+05
    4.5798751526e-03    1.0120000000e+05
    4.5899120159e-03    1.0120000000e+05
    4.5998133719e-03    1.0120000000e+05
    4.6099582687e-03    1.0120000000e+05
    4.6199443750e-03    1.0120000000e+05
    4.6299765818e-03    1.0120000000e+05
    4.6398481354e-03    1.0120000000e+05
    4.6499804594e-03    1.0120000000e+05
    4.6599227935e-03    1.0120000000e+05
    4.6699326485e-03    1.0120000000e+05
    4.6799504198e-03    1.0120000000e+05
    4.6898503788e-03    1.0120000000e+05
    4.6999407932e-03    1.0120000000e+05
    4.7099059448e-03    1.0120000000e+05
    4.7198729590e-03    1.0120000000e+05
    4.7298907302e-03    1.0120000000e+05
    4.7399424948e-03    1.0120000000e+05
    4.7498093918e-03    1.0120000000e+05
    4.7599622048e-03    1.0120000000e+05
    4.7698686831e-03    1.0120000000e+05
    4.7798971646e-03    1.0120000000e+05
    4.7898651101e-03    1.0120000000e+05
    4.7999373637e-03    1.0120000000e+05
    4.8099989071e-03    1.0120000000e+05
    4.8198830336e-03    1.0120000000e+05
    4.8298332840e-03    1.0120000000e+05
    4.8399749212e-03    1.0120000000e+05
    4.8499898985e-03    1.0120000000e+05
    4.8599992879e-03    1.0120000000e+05
    4.8698484898e-03    1.0120000000e+05
    4.8799421638e-03    1.0120000000e+05
    4.8898374662e-03    1.0120000000e+05
    4.8997886479e-03    1.0120000000e+05
    4.9099619500e-03    1.0120000000e+05
    4.9199694768e-03    1.0120000000e+05
    4.9299895763e-03    1.0120000000e+05
    4.9398317933e-03    1.0120000000e+05
    4.9499110319e-03    1.0120000000e+05
    4.9598049372e-03    1.0120000000e+05
    4.9699409865e-03    1.0120000000e+05
    4.9798861146e-03    1.0120000000e+05
    4.9898475409e-03    1.0120000000e+05
    4.9998457544e-03    1.0120000000e+05
    5.0098546781e-03    1.0120000000e+05
    5.0199003890e-03    1.0120000000e+05
    5.0299586728e-03    1.0120000000e+05
    5.0398213789e-03    1.0120000000e+05
    5.0499271601e-03    1.0120000000e+05
    5.0598308444e-03    1.0120000000e+05
    5.0699813291e-03    1.0120000000e+05
    5.0799190067e-03    1.0120000000e+05
    5.0898855552e-03    1.0120000000e+05
    5.0998642109e-03    1.0120000000e+05
    5.1098633558e-03    1.0120000000e+05
    5.1198834553e-03    1.0120000000e+05
    5.1299161278e-03    1.0120000000e+05
    5.1399702206e-03    1.0120000000e+05
    5.1498096436e-03    1.0120000000e+05
    5.1598958671e-03    1.0120000000e+05
    5.1699969918e-03    1.0120000000e+05
    5.1798792556e-03    1.0120000000e+05
    5.1897806115e-03    1.0120000000e+05
    5.1999255084e-03    1.0120000000e+05
    5.2098459564e-03    1.0120000000e+05
    5.2197882906e-03    1.0120000000e+05
    5.2299676463e-03    1.0120000000e+05
    5.2399304695e-03    1.0120000000e+05
    5.2499035373e-03    1.0120000000e+05
    5.2598849870e-03    1.0120000000e+05
    5.2698790096e-03    1.0120000000e+05
    5.2798800170e-03    1.0120000000e+05
    5.2898917347e-03    1.0120000000e+05
    5.2999039181e-03    1.0120000000e+05
    5.3099286743e-03    1.0120000000e+05
    5.3199562244e-03    1.0120000000e+05
    5.3299888968e-03    1.0120000000e+05
    5.3397901356e-03    1.0120000000e+05
    5.3498265333e-03    1.0120000000e+05
    5.3598629311e-03    1.0120000000e+05
    5.3699002601e-03    1.0120000000e+05
    5.3799375892e-03    1.0120000000e+05
    5.3899753839e-03    1.0120000000e+05
    5.3997803479e-03    1.0120000000e+05
    5.4098186083e-03    1.0120000000e+05
    5.4198573343e-03    1.0120000000e+05
    5.4298960604e-03    1.0120000000e+05
    5.4399347864e-03    1.0120000000e+05
    5.4499735124e-03    1.0120000000e+05
    5.4597784765e-03    1.0120000000e+05
    5.4698167369e-03    1.0120000000e+05
    5.4798545316e-03    1.0120000000e+05
    5.4898918606e-03    1.0120000000e+05
    5.4999287240e-03    1.0120000000e+05
    5.5099651217e-03    1.0120000000e+05
    5.5197677575e-03    1.0120000000e+05
    5.5298032239e-03    1.0120000000e+05
    5.5398382246e-03    1.0120000000e+05
    5.5498727597e-03    1.0120000000e+05
    5.5599068291e-03    1.0120000000e+05
    5.5699390359e-03    1.0120000000e+05
    5.5799703114e-03    1.0120000000e+05
    5.5897701532e-03    1.0120000000e+05
    5.5998004973e-03    1.0120000000e+05
    5.6098261848e-03    1.0120000000e+05
    5.6198574603e-03    1.0120000000e+05
    5.6298924610e-03    1.0120000000e+05
    5.6399172172e-03    1.0120000000e+05
    5.6499466300e-03    1.0120000000e+05
    5.6599937379e-03    1.0120000000e+05
    5.6698010303e-03    1.0120000000e+05
    5.6798444130e-03    1.0120000000e+05
    5.6899059564e-03    1.0120000000e+05
    5.6999716908e-03    1.0120000000e+05
    5.7098041289e-03    1.0120000000e+05
    5.7198842987e-03    1.0120000000e+05
    5.7299751788e-03    1.0120000000e+05
    5.7398285717e-03    1.0120000000e+05
    5.7499287650e-03    1.0120000000e+05
    5.7598087005e-03    1.0120000000e+05
    5.7699242607e-03    1.0120000000e+05
    5.7798088528e-03    1.0120000000e+05
    5.7899444364e-03    1.0120000000e+05
    5.7998527773e-03    1.0120000000e+05
    5.8099948801e-03    1.0120000000e+05
    5.8199129999e-03    1.0120000000e+05
    5.8298422955e-03    1.0120000000e+05
    5.8397771791e-03    1.0120000000e+05
    5.8499495499e-03    1.0120000000e+05
    5.8598974720e-03    1.0120000000e+05
    5.8698537759e-03    1.0120000000e+05
    5.8798165992e-03    1.0120000000e+05
    5.8897836134e-03    1.0120000000e+05
    5.8999937028e-03    1.0120000000e+05
    5.9099770151e-03    1.0120000000e+05
    5.9199668467e-03    1.0120000000e+05
    5.9299627319e-03    1.0120000000e+05
    5.9399618767e-03    1.0120000000e+05
    5.9499721974e-03    1.0120000000e+05
    5.9599890374e-03    1.0120000000e+05
    5.9697730467e-03    1.0120000000e+05
    5.9797978029e-03    1.0120000000e+05
    5.9898323379e-03    1.0120000000e+05
    5.9998757206e-03    1.0120000000e+05
    6.0099214315e-03    1.0120000000e+05
    6.0199741274e-03    1.0120000000e+05
    6.0297925957e-03    1.0120000000e+05
    6.0398629867e-03    1.0120000000e+05
    6.0499319807e-03    1.0120000000e+05
    6.0597676784e-03    1.0120000000e+05
    6.0698478483e-03    1.0120000000e+05
    6.0799377970e-03    1.0120000000e+05
    6.0897907242e-03    1.0120000000e+05
    6.0998867266e-03    1.0120000000e+05
    6.1099943705e-03    1.0120000000e+05
    6.1198659241e-03    1.0120000000e+05
    6.1299898662e-03    1.0120000000e+05
    6.1398670077e-03    1.0120000000e+05
    6.1499970034e-03    1.0120000000e+05
    6.1598885804e-03    1.0120000000e+05
    6.1697885394e-03    1.0120000000e+05
    6.1799287796e-03    1.0120000000e+05
    6.1898301356e-03    1.0120000000e+05
    6.1999880709e-03    1.0120000000e+05
    6.2099033967e-03    1.0120000000e+05
    6.2198294327e-03    1.0120000000e+05
    6.2299906276e-03    1.0120000000e+05
    6.2399273738e-03    1.0120000000e+05
    6.2498655170e-03    1.0120000000e+05
    6.2598101795e-03    1.0120000000e+05
    6.2699997798e-03    1.0120000000e+05
    6.2799472362e-03    1.0120000000e+05
    6.2899100594e-03    1.0120000000e+05
    6.2998649664e-03    1.0120000000e+05
    6.3098352402e-03    1.0120000000e+05
    6.3197971322e-03    1.0120000000e+05
    6.3297734596e-03    1.0120000000e+05
    6.3399956562e-03    1.0120000000e+05
    6.3499743119e-03    1.0120000000e+05
    6.3599669375e-03    1.0120000000e+05
    6.3699535094e-03    1.0120000000e+05
    6.3799591735e-03    1.0120000000e+05
    6.3899508677e-03    1.0120000000e+05
    6.3999602571e-03    1.0120000000e+05
    6.4099649899e-03    1.0120000000e+05
    6.4199785702e-03    1.0120000000e+05
    6.4299968071e-03    1.0120000000e+05
    6.4397677779e-03    1.0120000000e+05
    6.4497999847e-03    1.0120000000e+05
    6.4598238096e-03    1.0120000000e+05
    6.4698602073e-03    1.0120000000e+05
    6.4798910171e-03    1.0120000000e+05
    6.4899297431e-03    1.0120000000e+05
    6.4999773167e-03    1.0120000000e+05
    6.5097762272e-03    1.0120000000e+05
    6.5198303200e-03    1.0120000000e+05
    6.5298764966e-03    1.0120000000e+05
    6.5399371088e-03    1.0120000000e+05
    6.5499967895e-03    1.0120000000e+05
    6.5598166548e-03    1.0120000000e+05
    6.5698833205e-03    1.0120000000e+05
    6.5799499862e-03    1.0120000000e+05
    6.5897805616e-03    1.0120000000e+05
    6.5998574719e-03    1.0120000000e+05
    6.6099418327e-03    1.0120000000e+05
    6.6197752021e-03    1.0120000000e+05
    6.6298577003e-03    1.0120000000e+05
    6.6399457864e-03    1.0120000000e+05
    6.6497968510e-03    1.0120000000e+05
    6.6599040292e-03    1.0120000000e+05
    6.6697648726e-03    1.0120000000e+05
    6.6798706539e-03    1.0120000000e+05
    6.6899703816e-03    1.0120000000e+05
    6.6998247057e-03    1.0120000000e+05
    6.7099346779e-03    1.0120000000e+05
    6.7198043689e-03    1.0120000000e+05
    6.7299194634e-03    1.0120000000e+05
    6.7397849634e-03    1.0120000000e+05
    6.7498958670e-03    1.0120000000e+05
    6.7597585730e-03    1.0120000000e+05
    6.7698657513e-03    1.0120000000e+05
    6.7799775861e-03    1.0120000000e+05
    6.7898537964e-03    1.0120000000e+05
    6.7999777384e-03    1.0120000000e+05
    6.8098525517e-03    1.0120000000e+05
    6.8199718371e-03    1.0120000000e+05
    6.8298429251e-03    1.0120000000e+05
    6.8399603479e-03    1.0120000000e+05
    6.8498305045e-03    1.0120000000e+05
    6.8599469960e-03    1.0120000000e+05
    6.8698185496e-03    1.0120000000e+05
    6.8799392320e-03    1.0120000000e+05
    6.8898163736e-03    1.0120000000e+05
    6.8999426439e-03    1.0120000000e+05
    6.9098221138e-03    1.0120000000e+05
    6.9199479185e-03    1.0120000000e+05
    6.9298250601e-03    1.0120000000e+05
    6.9399480708e-03    1.0120000000e+05
    6.9498238154e-03    1.0120000000e+05
    6.9599458948e-03    1.0120000000e+05
    6.9698216394e-03    1.0120000000e+05
    6.9799441844e-03    1.0120000000e+05
    6.9898199290e-03    1.0120000000e+05
    6.9999424741e-03    1.0120000000e+05
    7.0098172873e-03    1.0120000000e+05
    7.0199393667e-03    1.0120000000e+05
    7.0298141800e-03    1.0120000000e+05
    7.0399353281e-03    1.0120000000e+05
    7.0498096757e-03    1.0120000000e+05
    7.0599303581e-03    1.0120000000e+05
    7.0698037744e-03    1.0120000000e+05
    7.0799239911e-03    1.0120000000e+05
    7.0897974074e-03    1.0120000000e+05
    7.0999171585e-03    1.0120000000e+05
    7.1097901091e-03    1.0120000000e+05
    7.1199093945e-03    1.0120000000e+05
    7.1297823451e-03    1.0120000000e+05
    7.1399030276e-03    1.0120000000e+05
    7.1497778408e-03    1.0120000000e+05
    7.1599003859e-03    1.0120000000e+05
    7.1697756648e-03    1.0120000000e+05
    7.1798963472e-03    1.0120000000e+05
    7.1897692978e-03    1.0120000000e+05
    7.1998876520e-03    1.0120000000e+05
    7.2097587399e-03    1.0120000000e+05
    7.2198766284e-03    1.0120000000e+05
    7.2299945168e-03    1.0120000000e+05
    7.2398674674e-03    1.0120000000e+05
    7.2499895468e-03    1.0120000000e+05
    7.2598662227e-03    1.0120000000e+05
    7.2699896991e-03    1.0120000000e+05
    7.2798654437e-03    1.0120000000e+05
    7.2899879888e-03    1.0120000000e+05
    7.2998623364e-03    1.0120000000e+05
    7.3099820875e-03    1.0120000000e+05
    7.3198550381e-03    1.0120000000e+05
    7.3299733922e-03    1.0120000000e+05
    7.3398472741e-03    1.0120000000e+05
    7.3499740101e-03    1.0120000000e+05
    7.3598548770e-03    1.0120000000e+05
    7.3699806817e-03    1.0120000000e+05
    7.3798587546e-03    1.0120000000e+05
    7.3899831623e-03    1.0120000000e+05
    7.3998607695e-03    1.0120000000e+05
    7.4099875055e-03    1.0120000000e+05
    7.4198716320e-03    1.0120000000e+05
    7.4297552928e-03    1.0120000000e+05
    7.4398848228e-03    1.0120000000e+05
    7.4497666210e-03    1.0120000000e+05
    7.4598947540e-03    1.0120000000e+05
    7.4697770178e-03    1.0120000000e+05
    7.4799102731e-03    1.0120000000e+05
    7.4897967279e-03    1.0120000000e+05
    7.4999290518e-03    1.0120000000e+05
    7.5098131783e-03    1.0120000000e+05
    7.5199441053e-03    1.0120000000e+05
    7.5298314914e-03    1.0120000000e+05
    7.5399684720e-03    1.0120000000e+05
    7.5498567894e-03    1.0120000000e+05
    7.5599919073e-03    1.0120000000e+05
    7.5698788278e-03    1.0120000000e+05
    7.5797680765e-03    1.0120000000e+05
    7.5899069197e-03    1.0120000000e+05
    7.5997970998e-03    1.0120000000e+05
    7.6099345461e-03    1.0120000000e+05
    7.6198233292e-03    1.0120000000e+05
    7.6299626380e-03    1.0120546875e+05
    7.6398556121e-03    1.9711932812e+05
    7.6499949209e-03    2.4080642188e+05
    7.6598864980e-03    2.4000750000e+05
    7.6697785407e-03    2.3922282812e+05
    7.6799192466e-03    2.3842432812e+05
    7.6898131520e-03    2.3765167188e+05
    7.6999538578e-03    2.3686526562e+05
    7.7098468319e-03    2.3610189062e+05
    7.7199880034e-03    2.3532348438e+05
    7.7298823744e-03    2.3456926562e+05
    7.7397758141e-03    2.3382039062e+05
    7.7499165200e-03    2.3305743750e+05
    7.7598104253e-03    2.3231710938e+05
    7.7699520625e-03    2.3156289062e+05
    7.7798459679e-03    2.3083204688e+05
    7.7899866737e-03    2.3008768750e+05
    7.7998805791e-03    2.2936567188e+05
    7.8097744845e-03    2.2864775000e+05
    7.8199151903e-03    2.2791651562e+05
    7.8298095614e-03    2.2720760938e+05
    7.8399498016e-03    2.2648535938e+05
    7.8498432413e-03    2.2578487500e+05
    7.8599844128e-03    2.2507125000e+05
    7.8698769212e-03    2.2437932812e+05
    7.8797703609e-03    2.2369157812e+05
    7.8899106011e-03    2.2299085938e+05
    7.8998031095e-03    2.2231132812e+05
    7.9099424183e-03    2.2161904688e+05
    7.9198349267e-03    2.2094767188e+05
    7.9299751669e-03    2.2026367188e+05
    7.9398667440e-03    2.1960037500e+05
    7.9497592524e-03    2.1894101562e+05
    7.9598985612e-03    2.1826910938e+05
    7.9697910696e-03    2.1761732812e+05
    7.9799294472e-03    2.1695323438e+05
    7.9898210242e-03    2.1630942188e+05
    7.9999612644e-03    2.1565357812e+05
    8.0098537728e-03    2.1501745312e+05
    8.0199930817e-03    2.1436881250e+05
    8.0298846588e-03    2.1373942188e+05
    8.0397780985e-03    2.1311389062e+05
    8.0499211326e-03    2.1247706250e+05
    8.0598192289e-03    2.1185954688e+05
    8.0699669197e-03    2.1122967188e+05
    8.0798668787e-03    2.1061792188e+05
    8.0897659063e-03    2.1000951562e+05
    8.0999126658e-03    2.0939010938e+05
    8.1098107621e-03    2.0878992188e+05
    8.1199556589e-03    2.0817826562e+05
    8.1298537552e-03    2.0758457812e+05
    8.1399986520e-03    2.0697950000e+05
    8.1498986110e-03    2.0639282812e+05
    8.1597985700e-03    2.0580960938e+05
    8.1699471921e-03    2.0521495312e+05
    8.1798471510e-03    2.0463775000e+05
    8.1899939105e-03    2.0404951562e+05
    8.1998938695e-03    2.0347932812e+05
    8.2097928971e-03    2.0291270312e+05
    8.2199405879e-03    2.0233510938e+05
    8.2298396155e-03    2.0177448438e+05
    8.2399863750e-03    2.0120292188e+05
    8.2498844713e-03    2.0064856250e+05
    8.2597834989e-03    2.0009754688e+05
    8.2699293271e-03    1.9953601562e+05
    8.2798274234e-03    1.9899120312e+05
    8.2899732515e-03    1.9843585938e+05
    8.2998704165e-03    1.9789710938e+05
    8.3097675815e-03    1.9736139062e+05
    8.3199124783e-03    1.9681539062e+05
    8.3298096433e-03    1.9628567188e+05
    8.3399554715e-03    1.9574568750e+05
    8.3498544991e-03    1.9522170312e+05
    8.3597572520e-03    1.9470050000e+05
    8.3699086681e-03    1.9416914062e+05
    8.3798142150e-03    1.9365357812e+05
    8.3899665624e-03    1.9312810938e+05
    8.3998702466e-03    1.9261831250e+05
    8.4097739309e-03    1.9211132812e+05
    8.4199244156e-03    1.9159454688e+05
    8.4298262373e-03    1.9109317188e+05
    8.4399767220e-03    1.9058201562e+05
    8.4498813376e-03    1.9008593750e+05
    8.4597859532e-03    1.8959251562e+05
    8.4699383005e-03    1.8908954688e+05
    8.4798429161e-03    1.8860167188e+05
    8.4899952635e-03    1.8810435938e+05
    8.4998989478e-03    1.8762181250e+05
    8.5098026320e-03    1.8714170312e+05
    8.5199540481e-03    1.8665223438e+05
    8.5298577324e-03    1.8617735938e+05
    8.5397614166e-03    1.8570520312e+05
    8.5499128327e-03    1.8522395312e+05
    8.5598155856e-03    1.8475687500e+05
    8.5699660704e-03    1.8428051562e+05
    8.5798678920e-03    1.8381820312e+05
    8.5897706449e-03    1.8335845312e+05
    8.5999211296e-03    1.8288985938e+05
    8.6098229513e-03    1.8243520312e+05
    8.6199734360e-03    1.8197167188e+05
    8.6298752576e-03    1.8152175000e+05
    8.6397780105e-03    1.8107410938e+05
    8.6499303579e-03    1.8061754688e+05
    8.6598359048e-03    1.8017445312e+05
    8.6699882522e-03    1.7972289062e+05
    8.6798956618e-03    1.7928468750e+05
    8.6898067966e-03    1.7884862500e+05
    8.6999647319e-03    1.7840387500e+05
    8.7098758668e-03    1.7797207812e+05
    8.7197916582e-03    1.7754237500e+05
    8.7299607694e-03    1.7710417188e+05
    8.7398858741e-03    1.7667873438e+05
    8.7498137727e-03    1.7625539062e+05
    8.7599921972e-03    1.7582354688e+05
    8.7699322030e-03    1.7540400000e+05
    8.7798833847e-03    1.7498617188e+05
    8.7898382917e-03    1.7457034375e+05
    8.7997987866e-03    1.7415648438e+05
    8.8097667322e-03    1.7374437500e+05
    8.8199917227e-03    1.7332392188e+05
    8.8299755007e-03    1.7291551562e+05
    8.8399667293e-03    1.7250890625e+05
    8.8499598205e-03    1.7210428125e+05
    8.8599650189e-03    1.7170126562e+05
    8.8699767366e-03    1.7130007812e+05
    8.8799931109e-03    1.7090075000e+05
    8.8897654787e-03    1.7051317188e+05
    8.8997976854e-03    1.7011720312e+05
    8.9098364115e-03    1.6972300000e+05
    8.9198844507e-03    1.6933043750e+05
    8.9299371466e-03    1.6893979688e+05
    8.9399907738e-03    1.6855114062e+05
    8.9498059824e-03    1.6817354688e+05
    8.9598800987e-03    1.6778789062e+05
    8.9699588716e-03    1.6740401562e+05
    8.9797927067e-03    1.6703142188e+05
    8.9898798615e-03    1.6665117188e+05
    8.9999744669e-03    1.6627264062e+05
    9.0098278597e-03    1.6590487500e+05
    9.0199382976e-03    1.6552929688e+05
    9.0297972783e-03    1.6516485938e+05
    9.0399198234e-03    1.6479264062e+05
    9.0497909114e-03    1.6443159375e+05
    9.0599209070e-03    1.6406298438e+05
    9.0698106214e-03    1.6370498438e+05
    9.0799527243e-03    1.6333960938e+05
    9.0898480266e-03    1.6298479688e+05
    9.0997526422e-03    1.6263131250e+05
    9.1099115089e-03    1.6227053125e+05
    9.1198226437e-03    1.6192042188e+05
    9.1297468171e-03    1.6157160938e+05
    9.1399224475e-03    1.6121568750e+05
    9.1498540714e-03    1.6086993750e+05
    9.1597931460e-03    1.6052562500e+05
    9.1699836776e-03    1.6017440625e+05
    9.1799292713e-03    1.5983342188e+05
    9.1898841783e-03    1.5949376562e+05
    9.1998353601e-03    1.5915579688e+05
    9.2097958550e-03    1.5881915625e+05
    9.2197665945e-03    1.5848384375e+05
    9.2299897224e-03    1.5814176562e+05
    9.2399688438e-03    1.5780943750e+05
    9.2499526218e-03    1.5747856250e+05
    9.2599308118e-03    1.5714943750e+05
    9.2699229717e-03    1.5682151562e+05
    9.2799207196e-03    1.5649496875e+05
    9.2899175361e-03    1.5617003125e+05
    9.2999264598e-03    1.5584623438e+05
    9.3099381775e-03    1.5552392188e+05
    9.3199443072e-03    1.5520332812e+05
    9.3299662694e-03    1.5488385938e+05
    9.3399910256e-03    1.5456584375e+05
    9.3497578055e-03    1.5425754688e+05
    9.3597956002e-03    1.5394221875e+05
    9.3698306009e-03    1.5362835938e+05
    9.3798665330e-03    1.5331596875e+05
    9.3899182975e-03    1.5300453125e+05
    9.3999719247e-03    1.5269460938e+05
    9.4097638503e-03    1.5239420312e+05
    9.4198258594e-03    1.5208700000e+05
    9.4298860058e-03    1.5178123438e+05
    9.4399498776e-03    1.5147675000e+05
    9.4497688115e-03    1.5118103125e+05
    9.4598475844e-03    1.5087896875e+05
    9.4699244946e-03    1.5057837500e+05
    9.4797546044e-03    1.5028657812e+05
    9.4898398966e-03    1.4998862500e+05
    9.4999270514e-03    1.4969204688e+05
    9.5097683370e-03    1.4940403125e+05
    9.5198694617e-03    1.4910971875e+05
    9.5299715176e-03    1.4881678125e+05
    9.5398249105e-03    1.4853240625e+05
    9.5499390736e-03    1.4824193750e+05
    9.5597933978e-03    1.4796018750e+05
    9.5699140802e-03    1.4767214062e+05
    9.5797758549e-03    1.4739275000e+05
    9.5899039879e-03    1.4710725000e+05
    9.5997806638e-03    1.4683012500e+05
    9.6099153161e-03    1.4654704688e+05
    9.6197929233e-03    1.4627240625e+05
    9.6299368888e-03    1.4599167188e+05
    9.6398219466e-03    1.4571937500e+05
    9.6499715000e-03    1.4544107812e+05
    9.6598686650e-03    1.4517096875e+05
    9.6697676927e-03    1.4490201562e+05
    9.6799312159e-03    1.4462717188e+05
    9.6898376942e-03    1.4436050000e+05
    9.6997441724e-03    1.4409503125e+05
    9.7099160776e-03    1.4382370312e+05
    9.7198300064e-03    1.4356045312e+05
    9.7297457978e-03    1.4329837500e+05
    9.7399270162e-03    1.4303045312e+05
    9.7498567775e-03    1.4277042188e+05
    9.7597884014e-03    1.4251150000e+05
    9.7699845210e-03    1.4224692188e+05
    9.7799235955e-03    1.4199017188e+05
    9.7898645326e-03    1.4173448438e+05
    9.7998082638e-03    1.4147985938e+05
    9.8097566515e-03    1.4122631250e+05
    9.8199713975e-03    1.4096720312e+05
    9.8299290985e-03    1.4071579688e+05
    9.8398877308e-03    1.4046542188e+05
    9.8498463631e-03    1.4021609375e+05
    9.8598087206e-03    1.3996776562e+05
    9.8697720096e-03    1.3972054688e+05
    9.8797380924e-03    1.3947442188e+05
    9.8899723962e-03    1.3922289062e+05
    9.8999487236e-03    1.3897882812e+05
    9.9099287763e-03    1.3873568750e+05
    9.9199125543e-03    1.3849348438e+05
    9.9298991263e-03    1.3825226562e+05
    9.9398875609e-03    1.3801209375e+05
    9.9498797208e-03    1.3777290625e+05
    9.9598746747e-03    1.3753471875e+05
    9.9698724225e-03    1.3729751562e+05
    9.9798738956e-03    1.3706128125e+05
    9.9898800254e-03    1.3682601562e+05
    9.9998870865e-03    1.3659170312e+05
    1.0009896941e-02    1.3635835938e+05
    1.0019909590e-02    1.3612596875e+05
    1.0029924102e-02    1.3589456250e+05
    1.0039944202e-02    1.3566409375e+05
    1.0049968027e-02    1.3543454688e+05
    1.0059993714e-02    1.3520592188e+05
    1.0069760494e-02    1.3498423438e+05
    1.0079791769e-02    1.3475750000e+05
    1.0089823976e-02    1.3453173438e+05
    1.0099859908e-02    1.3430687500e+05
    1.0109902360e-02    1.3408285938e+05
    1.0119946674e-02    1.3385973438e+05
    1.0129994713e-02    1.3363756250e+05
    1.0139780119e-02    1.3342212500e+05
    1.0149831884e-02    1.3320176562e+05
    1.0159885511e-02    1.3298229688e+05
    1.0169941001e-02    1.3276370312e+05
    1.0179735720e-02    1.3255168750e+05
    1.0189800523e-02    1.3233478125e+05
    1.0199869052e-02    1.3211878125e+05
    1.0209938511e-02    1.3190371875e+05
    1.0219746269e-02    1.3169514062e+05
    1.0229823180e-02    1.3148170312e+05
    1.0239901952e-02    1.3126907812e+05
    1.0249981657e-02    1.3105735156e+05
    1.0259797797e-02    1.3085209375e+05
    1.0269884020e-02    1.3064216406e+05
    1.0279973038e-02    1.3043312500e+05
    1.0289798491e-02    1.3023036719e+05
    1.0299894027e-02    1.3002285156e+05
    1.0309993289e-02    1.2981611719e+05
    1.0319828056e-02    1.2961566406e+05
    1.0329931043e-02    1.2941067969e+05
    1.0339769535e-02    1.2921191406e+05
    1.0349876247e-02    1.2900858594e+05
    1.0359987617e-02    1.2880605469e+05
    1.0369834490e-02    1.2860966406e+05
    1.0379950516e-02    1.2840875000e+05
    1.0389803909e-02    1.2821383594e+05
    1.0399926454e-02    1.2801441406e+05
    1.0409782641e-02    1.2782109375e+05
    1.0419907048e-02    1.2762336719e+05
    1.0429770686e-02    1.2743153906e+05
    1.0439903475e-02    1.2723528125e+05
    1.0449768975e-02    1.2704497656e+05
    1.0459902696e-02    1.2685033594e+05
    1.0469774716e-02    1.2666152344e+05
    1.0479917750e-02    1.2646833594e+05
    1.0489794426e-02    1.2628099219e+05
    1.0499943048e-02    1.2608932031e+05
    1.0509829037e-02    1.2590336719e+05
    1.0519984178e-02    1.2571316406e+05
    1.0529871099e-02    1.2552880469e+05
    1.0539760813e-02    1.2534514844e+05
    1.0549919680e-02    1.2515722656e+05
    1.0559815913e-02    1.2497494531e+05
    1.0569982231e-02    1.2478843750e+05
    1.0579882190e-02    1.2460753906e+05
    1.0589787737e-02    1.2442733594e+05
    1.0599964298e-02    1.2424296094e+05
    1.0609872639e-02    1.2406421094e+05
    1.0619781911e-02    1.2388616406e+05
    1.0629963130e-02    1.2370397656e+05
    1.0639879853e-02    1.2352725000e+05
    1.0649799369e-02    1.2335121094e+05
    1.0659988970e-02    1.2317108594e+05
    1.0669915006e-02    1.2299633594e+05
    1.0679843836e-02    1.2282221094e+05
    1.0689772666e-02    1.2264883594e+05
    1.0699970648e-02    1.2247156250e+05
    1.0709905066e-02    1.2229960156e+05
    1.0719846003e-02    1.2212816406e+05
    1.0729787871e-02    1.2195735156e+05
    1.0739730671e-02    1.2178721875e+05
    1.0749948211e-02    1.2161316406e+05
    1.0759897530e-02    1.2144437500e+05
    1.0769845918e-02    1.2127622656e+05
    1.0779797100e-02    1.2110871875e+05
    1.0789753869e-02    1.2094181250e+05
    1.0799984448e-02    1.2077102344e+05
    1.0809947737e-02    1.2060536719e+05
    1.0819912888e-02    1.2044033594e+05
    1.0829880834e-02    1.2027589844e+05
    1.0839853436e-02    1.2011205469e+05
    1.0849825107e-02    1.1994884375e+05
    1.0859798640e-02    1.1978628125e+05
    1.0869777761e-02    1.1962428906e+05
    1.0879763402e-02    1.1946289844e+05
    1.0889748111e-02    1.1930221094e+05
    1.0899733752e-02    1.1914216406e+05
    1.0909995064e-02    1.1897840625e+05
    1.0919990018e-02    1.1881949219e+05
    1.0929986835e-02    1.1866112500e+05
    1.0939984582e-02    1.1850327344e+05
    1.0949987918e-02    1.1834590625e+05
    1.0959995911e-02    1.1818906250e+05
    1.0969733819e-02    1.1803713281e+05
    1.0979739018e-02    1.1788182031e+05
    1.0989748873e-02    1.1772721094e+05
    1.0999767110e-02    1.1757315625e+05
    1.1009787209e-02    1.1741965625e+05
    1.1019813828e-02    1.1726664844e+05
    1.1029847898e-02    1.1711403906e+05
    1.1039889418e-02    1.1696177344e+05
    1.1049932800e-02    1.1680975781e+05
    1.1059974320e-02    1.1665805469e+05
    1.1069743894e-02    1.1651090625e+05
    1.1079784483e-02    1.1636041406e+05
    1.1089822277e-02    1.1621097656e+05
    1.1099860072e-02    1.1606272656e+05
    1.1109898798e-02    1.1591562500e+05
    1.1119940318e-02    1.1576949219e+05
    1.1129982769e-02    1.1562403906e+05
    1.1139753275e-02    1.1548282031e+05
    1.1149794795e-02    1.1533758594e+05
    1.1159835383e-02    1.1519191406e+05
    1.1169875972e-02    1.1504574219e+05
    1.1179915629e-02    1.1489931250e+05
    1.1189956218e-02    1.1475312500e+05
    1.1199996807e-02    1.1460778125e+05
    1.1209766380e-02    1.1446775781e+05
    1.1219805107e-02    1.1432578906e+05
    1.1229841970e-02    1.1418610156e+05
    1.1239877902e-02    1.1404857031e+05
    1.1249917559e-02    1.1391262500e+05
    1.1259960011e-02    1.1377741406e+05
    1.1269731447e-02    1.1364555469e+05
    1.1279776692e-02    1.1350871094e+05
    1.1289823800e-02    1.1336996094e+05
    1.1299870908e-02    1.1322935156e+05
    1.1309918016e-02    1.1308750000e+05
    1.1319963261e-02    1.1294533594e+05
    1.1329735629e-02    1.1280769531e+05
    1.1339779012e-02    1.1266785156e+05
    1.1349822395e-02    1.1253027344e+05
    1.1359864846e-02    1.1239532031e+05
    1.1369907297e-02    1.1226321875e+05
    1.1379951611e-02    1.1213397656e+05
    1.1389996856e-02    1.1200730469e+05
    1.1399770156e-02    1.1188574219e+05
    1.1409813538e-02    1.1176128125e+05
    1.1419855990e-02    1.1163585156e+05
    1.1429897510e-02    1.1150832031e+05
    1.1439939030e-02    1.1137811719e+05
    1.1449979618e-02    1.1124546875e+05
    1.1459750123e-02    1.1111478125e+05
    1.1469791643e-02    1.1097978906e+05
    1.1479834095e-02    1.1084511719e+05
    1.1489874683e-02    1.1071147656e+05
    1.1499914341e-02    1.1057934375e+05
    1.1509953998e-02    1.1044888281e+05
    1.1519991793e-02    1.1032013281e+05
    1.1529759504e-02    1.1019647656e+05
    1.1539798230e-02    1.1007108594e+05
    1.1549836956e-02    1.0994739844e+05
    1.1559874751e-02    1.0982539844e+05
    1.1569911614e-02    1.0970493750e+05
    1.1579947546e-02    1.0958578906e+05
    1.1589983478e-02    1.0946760156e+05
    1.1599747464e-02    1.0935308594e+05
    1.1609783396e-02    1.0923537500e+05
    1.1619818397e-02    1.0911725781e+05
    1.1629853398e-02    1.0899853125e+05
    1.1639887467e-02    1.0887919531e+05
    1.1649920605e-02    1.0875942969e+05
    1.1659952812e-02    1.0863943750e+05
    1.1669985019e-02    1.0851940625e+05
    1.1679745279e-02    1.0840271094e+05
    1.1689777486e-02    1.0828296094e+05
    1.1699808761e-02    1.0816346094e+05
    1.1709840037e-02    1.0804416406e+05
    1.1719869450e-02    1.0792503906e+05
    1.1729898863e-02    1.0780608594e+05
    1.1739927344e-02    1.0768741406e+05
    1.1749954894e-02    1.0756910156e+05
    1.1759983376e-02    1.0745125781e+05
    1.1769742705e-02    1.0733712500e+05
    1.1779773049e-02    1.0722060156e+05
    1.1789801531e-02    1.0710512500e+05
    1.1799829081e-02    1.0699081250e+05
    1.1809854768e-02    1.0687765625e+05
    1.1819879524e-02    1.0676558594e+05
    1.1829904281e-02    1.0665453125e+05
    1.1839929037e-02    1.0654437500e+05
    1.1849954724e-02    1.0643492969e+05
    1.1859984137e-02    1.0632593750e+05
    1.1869746260e-02    1.0622008594e+05
    1.1879779398e-02    1.0611134375e+05
    1.1889812537e-02    1.0600258594e+05
    1.1899842881e-02    1.0589377344e+05
    1.1909872293e-02    1.0578500781e+05
    1.1919900775e-02    1.0567635156e+05
    1.1929928325e-02    1.0556797656e+05
    1.1939954944e-02    1.0545997656e+05
    1.1949981563e-02    1.0535246875e+05
    1.1959737167e-02    1.0524833594e+05
    1.1969762854e-02    1.0514178906e+05
    1.1979788542e-02    1.0503571094e+05
    1.1989814229e-02    1.0493009375e+05
    1.1999839917e-02    1.0482491406e+05
    1.2009864673e-02    1.0472013281e+05
    1.2019889429e-02    1.0461564844e+05
    1.2029914185e-02    1.0451141406e+05
    1.2039938010e-02    1.0440746875e+05
    1.2049961835e-02    1.0430391406e+05
    1.2059983797e-02    1.0420083594e+05
    1.2069734745e-02    1.0410100781e+05
    1.2079755776e-02    1.0399886719e+05
    1.2089776807e-02    1.0389716406e+05
    1.2099796906e-02    1.0379587500e+05
    1.2109817006e-02    1.0369496094e+05
    1.2119837105e-02    1.0359441406e+05
    1.2129856274e-02    1.0349427344e+05
    1.2139874510e-02    1.0339452344e+05
    1.2149891816e-02    1.0329513281e+05
    1.2159909122e-02    1.0319608594e+05
    1.2169926427e-02    1.0309738281e+05
    1.2179942802e-02    1.0299905469e+05
    1.2189959176e-02    1.0290111719e+05
    1.2199974619e-02    1.0280355469e+05
    1.2209990062e-02    1.0270639844e+05
    1.2219735421e-02    1.0261221094e+05
    1.2229752727e-02    1.0251567969e+05
    1.2239771895e-02    1.0241944531e+05
    1.2249791063e-02    1.0232347656e+05
    1.2259815820e-02    1.0222771875e+05
    1.2269865721e-02    1.0213196094e+05
    1.2279943563e-02    1.0203616406e+05
    1.2289774604e-02    1.0194297656e+05
    1.2299899943e-02    1.0184721875e+05
    1.2309768237e-02    1.0175405469e+05
    1.2319917791e-02    1.0165832031e+05
    1.2329796329e-02    1.0156521875e+05
    1.2339953333e-02    1.0146964844e+05
    1.2349841185e-02    1.0137689844e+05
    1.2359745800e-02    1.0128433594e+05
    1.2369955890e-02    1.0118921875e+05
    1.2379933149e-02    1.0109650781e+05
    1.2389958836e-02    1.0100362500e+05
    1.2399751693e-02    1.0091331250e+05
    1.2409871444e-02    1.0082062500e+05
    1.2419750914e-02    1.0073085156e+05
    1.2429947965e-02    1.0063897656e+05
    1.2439890765e-02    1.0055016406e+05
    1.2449858710e-02    1.0046194531e+05
    1.2459852733e-02    1.0037439844e+05
    1.2469875626e-02    1.0028740625e+05
    1.2479925528e-02    1.0020096094e+05
    1.2489712797e-02    1.0011735156e+05
    1.2499812059e-02    1.0003153906e+05
    1.2509932742e-02    9.9945726562e+04
    1.2519778684e-02    9.9862195312e+04
    1.2529927306e-02    9.9775789062e+04
    1.2539797463e-02    9.9691312500e+04
    1.2549974024e-02    9.9603750000e+04
    1.2559882365e-02    9.9518164062e+04
    1.2569818646e-02    9.9432187500e+04
    1.2579790317e-02    9.9345976562e+04
    1.2589800172e-02    9.9259750000e+04
    1.2599840760e-02    9.9173718750e+04
    1.2609907426e-02    9.9088023438e+04
    1.2619988993e-02    9.9002742188e+04
    1.2629777193e-02    9.8920414062e+04
    1.2639866211e-02    9.8835976562e+04
    1.2649957091e-02    9.8751773438e+04
    1.2659752741e-02    9.8670117188e+04
    1.2669855729e-02    9.8585914062e+04
    1.2679979205e-02    9.8501648438e+04
    1.2689832598e-02    9.8419882812e+04
    1.2699712999e-02    9.8338351562e+04
    1.2709923089e-02    9.8254710938e+04
    1.2719856575e-02    9.8173992188e+04
    1.2729804032e-02    9.8093937500e+04
    1.2739760801e-02    9.8014789062e+04
    1.2749719433e-02    9.7936710938e+04
    1.2759983540e-02    9.7857210938e+04
    1.2769961730e-02    9.7780539062e+04
    1.2779982761e-02    9.7703773438e+04
    1.2789777480e-02    9.7628664062e+04
    1.2799689546e-02    9.7552304688e+04
    1.2809752487e-02    9.7474148438e+04
    1.2819992378e-02    9.7393726562e+04
    1.2829766609e-02    9.7316117188e+04
    1.2839713134e-02    9.7236476562e+04
    1.2849834748e-02    9.7155218750e+04
    1.2859783135e-02    9.7075632812e+04
    1.2869890779e-02    9.6995429688e+04
    1.2879798189e-02    9.6917687500e+04
    1.2889849022e-02    9.6839929688e+04
    1.2899675407e-02    9.6765148438e+04
    1.2909630314e-02    9.6690632812e+04
    1.2919712812e-02    9.6616320312e+04
    1.2929921970e-02    9.6542023438e+04
    1.2939871289e-02    9.6470242188e+04
    1.2949936092e-02    9.6397906250e+04
    1.2959720567e-02    9.6327460938e+04
    1.2969611213e-02    9.6255804688e+04
    1.2979606166e-02    9.6182773438e+04
    1.2989706360e-02    9.6108281250e+04
    1.2999909930e-02    9.6032414062e+04
    1.3009803370e-02    9.5958476562e+04
    1.3019791804e-02    9.5883726562e+04
    1.3029875234e-02    9.5808468750e+04
    1.3039628975e-02    9.5736062500e+04
    1.3049897738e-02    9.5660460938e+04
    1.3059821911e-02    9.5588132812e+04
    1.3069827110e-02    9.5516101562e+04
    1.3079914264e-02    9.5444539062e+04
    1.3089636341e-02    9.5376539062e+04
    1.3099879026e-02    9.5305789062e+04
    1.3109750114e-02    9.5238273438e+04
    1.3119683601e-02    9.5170750000e+04
    1.3129667379e-02    9.5103054688e+04
    1.3139690273e-02    9.5034960938e+04
    1.3149748556e-02    9.4966101562e+04
    1.3159832917e-02    9.4896242188e+04
    1.3169950806e-02    9.4825101562e+04
    1.3179638423e-02    9.4756335938e+04
    1.3189824298e-02    9.4683625000e+04
    1.3199592941e-02    9.4614117188e+04
    1.3209870085e-02    9.4541882812e+04
    1.3219702058e-02    9.4473812500e+04
    1.3229573146e-02    9.4406851562e+04
    1.3239952736e-02    9.4337960938e+04
    1.3249911368e-02    9.4273414062e+04
    1.3259893283e-02    9.4209539062e+04
    1.3269908726e-02    9.4145804688e+04
    1.3279954903e-02    9.4081812500e+04
    1.3289568014e-02    9.4019757812e+04
    1.3299718499e-02    9.3953289062e+04
    1.3309853151e-02    9.3885562500e+04
    1.3319578953e-02    9.3819757812e+04
    1.3329816051e-02    9.3749875000e+04
    1.3339581899e-02    9.3683625000e+04
    1.3349896297e-02    9.3614289062e+04
    1.3359725475e-02    9.3549664062e+04
    1.3369624503e-02    9.3485867188e+04
    1.3379503973e-02    9.3423492188e+04
    1.3389929198e-02    9.3358976562e+04
    1.3399932534e-02    9.3298218750e+04
    1.3409916312e-02    9.3237773438e+04
    1.3419898227e-02    9.3177007812e+04
    1.3429515064e-02    9.3118023438e+04
    1.3439609669e-02    9.3054648438e+04
    1.3449669816e-02    9.2990320312e+04
    1.3459810056e-02    9.2924851562e+04
    1.3469988480e-02    9.2858757812e+04
    1.3479633257e-02    9.2796164062e+04
    1.3489846140e-02    9.2731429688e+04
    1.3499572873e-02    9.2670773438e+04
    1.3509864919e-02    9.2608156250e+04
    1.3519672677e-02    9.2550218750e+04
    1.3529509306e-02    9.2493062500e+04
    1.3539927080e-02    9.2433210938e+04
    1.3549870811e-02    9.2376039062e+04
    1.3559757732e-02    9.2317539062e+04
    1.3569688424e-02    9.2258062500e+04
    1.3579626568e-02    9.2197210938e+04
    1.3589608483e-02    9.2135375000e+04
    1.3599604368e-02    9.2073093750e+04
    1.3609594665e-02    9.2011210938e+04
    1.3619681820e-02    9.1950398438e+04
    1.3629732653e-02    9.1890945312e+04
    1.3639774173e-02    9.1833210938e+04
    1.3649859466e-02    9.1777273438e+04
    1.3659987599e-02    9.1721585938e+04
    1.3669590466e-02    9.1668539062e+04
    1.3679748401e-02    9.1611812500e+04
    1.3689942658e-02    9.1553585938e+04
    1.3699597679e-02    9.1497031250e+04
    1.3709840365e-02    9.1436210938e+04
    1.3719530776e-02    9.1378101562e+04
    1.3729803264e-02    9.1317210938e+04
    1.3739551418e-02    9.1260539062e+04
    1.3749838807e-02    9.1202601562e+04
    1.3759640045e-02    9.1149039062e+04
    1.3769940473e-02    9.1094085938e+04
    1.3779706322e-02    9.1042476562e+04
    1.3789973222e-02    9.0988117188e+04
    1.3799681328e-02    9.0935656250e+04
    1.3809815980e-02    9.0880007812e+04
    1.3819765300e-02    9.0823710938e+04
    1.3829992153e-02    9.0764960938e+04
    1.3839939609e-02    9.0707851562e+04
    1.3849603012e-02    9.0653218750e+04
    1.3859909959e-02    9.0596460938e+04
    1.3869892806e-02    9.0543210938e+04
    1.3879992068e-02    9.0490851562e+04
    1.3889756054e-02    9.0441148438e+04
    1.3899999671e-02    9.0389125000e+04
    1.3909867965e-02    9.0338351562e+04
    1.3919741847e-02    9.0286351562e+04
    1.3929943554e-02    9.0231210938e+04
    1.3939704746e-02    9.0177460938e+04
    1.3949683867e-02    9.0122312500e+04
    1.3959789649e-02    9.0067187500e+04
    1.3969925232e-02    9.0013335938e+04
    1.3979986310e-02    8.9961585938e+04
    1.3989859261e-02    8.9912273438e+04
    1.3999877498e-02    8.9863132812e+04
    1.4009838924e-02    8.9814398438e+04
    1.4019977301e-02    8.9764062500e+04
    1.4029912651e-02    8.9713500000e+04
    1.4039981179e-02    8.9660523438e+04
    1.4049925841e-02    8.9608500000e+04
    1.4059972018e-02    8.9555375000e+04
    1.4069860801e-02    8.9503898438e+04
    1.4079988003e-02    8.9452632812e+04
    1.4089898206e-02    8.9404070312e+04
    1.4099895023e-02    8.9356398438e+04
    1.4109876007e-02    8.9309414062e+04
    1.4119941741e-02    8.9261812500e+04
    1.4129881747e-02    8.9213960938e+04
    1.4139890671e-02    8.9164585938e+04
    1.4149943367e-02    8.9113960938e+04
    1.4159983024e-02    8.9062914062e+04
    1.4169977978e-02    8.9012460938e+04
    1.4179882593e-02    8.8963539062e+04
    1.4189881273e-02    8.8915562500e+04
    1.4199964702e-02    8.8868539062e+04
    1.4209909365e-02    8.8823023438e+04
    1.4219916426e-02    8.8777398438e+04
    1.4229984954e-02    8.8730992188e+04
    1.4239875600e-02    8.8684367188e+04
    1.4249814674e-02    8.8636437500e+04
    1.4259791933e-02    8.8587710938e+04
    1.4269817621e-02    8.8538968750e+04
    1.4279866591e-02    8.8490945312e+04
    1.4289955609e-02    8.8444023438e+04
    1.4299852774e-02    8.8399187500e+04
    1.4309776016e-02    8.8355164062e+04
    1.4319958165e-02    8.8310242188e+04
    1.4329930767e-02    8.8265789062e+04
    1.4339943416e-02    8.8220273438e+04
    1.4349956065e-02    8.8173843750e+04
    1.4359792694e-02    8.8127726562e+04
    1.4369848184e-02    8.8080773438e+04
    1.4379967004e-02    8.8034273438e+04
    1.4389825985e-02    8.7990070312e+04
    1.4399975538e-02    8.7945726562e+04
    1.4409891330e-02    8.7903148438e+04
    1.4419831336e-02    8.7860585938e+04
    1.4429789968e-02    8.7817500000e+04
    1.4439791441e-02    8.7773492188e+04
    1.4449791983e-02    8.7728773438e+04
    1.4459813945e-02    8.7683648438e+04
    1.4469882473e-02    8.7638539062e+04
    1.4479931444e-02    8.7594304688e+04
    1.4489781111e-02    8.7551960938e+04
    1.4499901794e-02    8.7509351562e+04
    1.4509787783e-02    8.7468226562e+04
    1.4519915916e-02    8.7426101562e+04
    1.4529859647e-02    8.7384312500e+04
    1.4539798722e-02    8.7341859375e+04
    1.4549976215e-02    8.7297835938e+04
    1.4559959061e-02    8.7254562500e+04
    1.4569944702e-02    8.7211773438e+04
    1.4579933137e-02    8.7169859375e+04
    1.4589956962e-02    8.7128671875e+04
    1.4599996619e-02    8.7088007812e+04
    1.4609781094e-02    8.7048570312e+04
    1.4619845897e-02    8.7007789062e+04
    1.4629934914e-02    8.6966335938e+04
    1.4639761299e-02    8.6925429688e+04
    1.4649852179e-02    8.6883273438e+04
    1.4659980312e-02    8.6841351562e+04
    1.4669856057e-02    8.6801171875e+04
    1.4679977670e-02    8.6760687500e+04
    1.4689891599e-02    8.6721515625e+04
    1.4699810185e-02    8.6682562500e+04
    1.4709975570e-02    8.6642601562e+04
    1.4719923027e-02    8.6603203125e+04
    1.4729875140e-02    8.6563406250e+04
    1.4739832841e-02    8.6523437500e+04
    1.4749815688e-02    8.6483625000e+04
    1.4759808779e-02    8.6444281250e+04
    1.4769796282e-02    8.6405507812e+04
    1.4779800549e-02    8.6367132812e+04
    1.4789825305e-02    8.6328960938e+04
    1.4799846336e-02    8.6290843750e+04
    1.4809873886e-02    8.6252492188e+04
    1.4819923788e-02    8.6213718750e+04
    1.4829983003e-02    8.6174695312e+04
    1.4839807525e-02    8.6136703125e+04
    1.4849890955e-02    8.6098156250e+04
    1.4859978110e-02    8.6060156250e+04
    1.4869824983e-02    8.6023492188e+04
    1.4879932627e-02    8.5986039062e+04
    1.4889801852e-02    8.5949398438e+04
    1.4899916016e-02    8.5911664062e+04
    1.4909796417e-02    8.5874695312e+04
    1.4919941314e-02    8.5836867188e+04
    1.4929843135e-02    8.5800210938e+04
    1.4939993620e-02    8.5762960938e+04
    1.4949908480e-02    8.5726914062e+04
    1.4959832653e-02    8.5691132812e+04
    1.4969765209e-02    8.5655500000e+04
    1.4979952015e-02    8.5618992188e+04
    1.4989896677e-02    8.5583320312e+04
    1.4999848790e-02    8.5547609375e+04
    1.5009813942e-02    8.5511929688e+04
    1.5019782819e-02    8.5476359375e+04
    1.5029752627e-02    8.5440976562e+04
    1.5039984137e-02    8.5405000000e+04
    1.5049976297e-02    8.5370218750e+04
    1.5059975907e-02    8.5335593750e+04
    1.5069974586e-02    8.5300906250e+04
    1.5079979785e-02    8.5266062500e+04
    1.5089998022e-02    8.5231148438e+04
    1.5099773183e-02    8.5197257812e+04
    1.5109800734e-02    8.5162804688e+04
    1.5119830146e-02    8.5128601562e+04
    1.5129870735e-02    8.5094570312e+04
    1.5139921568e-02    8.5060625000e+04
    1.5149974264e-02    8.5026757812e+04
    1.5159780160e-02    8.4993742188e+04
    1.5169840306e-02    8.4959914062e+04
    1.5179910697e-02    8.4926179688e+04
    1.5189991333e-02    8.4892585938e+04
    1.5199815854e-02    8.4860015625e+04
    1.5209899284e-02    8.4826757812e+04
    1.5219992027e-02    8.4793695312e+04
    1.5229838900e-02    8.4761593750e+04
    1.5239940956e-02    8.4728695312e+04
    1.5249789692e-02    8.4696578125e+04
    1.5259901062e-02    8.4663671875e+04
    1.5269768424e-02    8.4631773438e+04
    1.5279893763e-02    8.4599296875e+04
    1.5289764851e-02    8.4567781250e+04
    1.5299890190e-02    8.4535523438e+04
    1.5309773386e-02    8.4504140625e+04
    1.5319915488e-02    8.4472093750e+04
    1.5329804271e-02    8.4440976562e+04
    1.5339949168e-02    8.4409117188e+04
    1.5349842608e-02    8.4378085938e+04
    1.5359749086e-02    8.4347117188e+04
    1.5369907953e-02    8.4315562500e+04
    1.5379815362e-02    8.4285015625e+04
    1.5389983542e-02    8.4253789062e+04
    1.5399900265e-02    8.4223390625e+04
    1.5409825370e-02    8.4193031250e+04
    1.5419747680e-02    8.4162765625e+04
    1.5429927967e-02    8.4131820312e+04
    1.5439861454e-02    8.4101781250e+04
    1.5449794941e-02    8.4071914062e+04
    1.5459990129e-02    8.4041375000e+04
    1.5469926409e-02    8.4011695312e+04
    1.5479867347e-02    8.3982125000e+04
    1.5489817597e-02    8.3952703125e+04
    1.5499767847e-02    8.3923414062e+04
    1.5509975143e-02    8.3893437500e+04
    1.5519923531e-02    8.3864328125e+04
    1.5529872850e-02    8.3835406250e+04
    1.5539828688e-02    8.3806648438e+04
    1.5549783595e-02    8.3777968750e+04
    1.5559997410e-02    8.3748609375e+04
    1.5569960698e-02    8.3720125000e+04
    1.5579925850e-02    8.3691835938e+04
    1.5589892864e-02    8.3663648438e+04
    1.5599860810e-02    8.3635492188e+04
    1.5609828755e-02    8.3607375000e+04
    1.5619795769e-02    8.3579382812e+04
    1.5629762784e-02    8.3551523438e+04
    1.5639984980e-02    8.3523078125e+04
    1.5649950132e-02    8.3495437500e+04
    1.5659917146e-02    8.3467882812e+04
    1.5669882298e-02    8.3440437500e+04
    1.5679849312e-02    8.3413093750e+04
    1.5689816326e-02    8.3385851562e+04
    1.5699783340e-02    8.3358703125e+04
    1.5709750354e-02    8.3331687500e+04
    1.5719974414e-02    8.3304101562e+04
    1.5729945153e-02    8.3277312500e+04
    1.5739915892e-02    8.3250664062e+04
    1.5749886632e-02    8.3224164062e+04
    1.5759859234e-02    8.3197804688e+04
    1.5769829974e-02    8.3171531250e+04
    1.5779802576e-02    8.3145343750e+04
    1.5789773315e-02    8.3119289062e+04
    1.5799745917e-02    8.3093406250e+04
    1.5809973702e-02    8.3066960938e+04
    1.5819946304e-02    8.3041250000e+04
    1.5829918906e-02    8.3015640625e+04
    1.5839893371e-02    8.2990148438e+04
    1.5849867836e-02    8.2964710938e+04
    1.5859842300e-02    8.2939328125e+04
    1.5869816765e-02    8.2914062500e+04
    1.5879793093e-02    8.2888953125e+04
    1.5889771283e-02    8.2863945312e+04
    1.5899747610e-02    8.2839000000e+04
    1.5909980983e-02    8.2813507812e+04
    1.5919959173e-02    8.2788781250e+04
    1.5929937363e-02    8.2764179688e+04
    1.5939915553e-02    8.2739671875e+04
    1.5949893743e-02    8.2715265625e+04
    1.5959873796e-02    8.2690992188e+04
    1.5969851986e-02    8.2666875000e+04
    1.5979832038e-02    8.2642859375e+04
    1.5989812091e-02    8.2618898438e+04
    1.5999792144e-02    8.2595054688e+04
    1.6009770334e-02    8.2571359375e+04
    1.6019750386e-02    8.2547781250e+04
    1.6029985622e-02    8.2523648438e+04
    1.6039965674e-02    8.2500203125e+04
    1.6049947590e-02    8.2476890625e+04
    1.6059931368e-02    8.2453671875e+04
    1.6069917008e-02    8.2430507812e+04
    1.6079906374e-02    8.2407390625e+04
    1.6089899465e-02    8.2384406250e+04
    1.6099896282e-02    8.2361593750e+04
    1.6109889373e-02    8.2338882812e+04
    1.6119882464e-02    8.2316203125e+04
    1.6129873693e-02    8.2293601562e+04
    1.6139864922e-02    8.2271171875e+04
    1.6149856150e-02    8.2248921875e+04
    1.6159845516e-02    8.2226781250e+04
    1.6169838607e-02    8.2204710938e+04
    1.6179833561e-02    8.2182718750e+04
    1.6189832240e-02    8.2160789062e+04
    1.6199830920e-02    8.2138921875e+04
    1.6209827736e-02    8.2117156250e+04
    1.6219826415e-02    8.2095507812e+04
    1.6229823232e-02    8.2073968750e+04
    1.6239821911e-02    8.2052468750e+04
    1.6249820590e-02    8.2031039062e+04
    1.6259817407e-02    8.2009757812e+04
    1.6269816086e-02    8.1988664062e+04
    1.6279812902e-02    8.1967710938e+04
    1.6289809719e-02    8.1946835938e+04
    1.6299808398e-02    8.1926023438e+04
    1.6309808940e-02    8.1905289062e+04
    1.6319807619e-02    8.1884664062e+04
    1.6329806298e-02    8.1864156250e+04
    1.6339804977e-02    8.1843742188e+04
    1.6349805519e-02    8.1823406250e+04
    1.6359804198e-02    8.1803156250e+04
    1.6369802877e-02    8.1782984375e+04
    1.6379801556e-02    8.1762882812e+04
    1.6389800236e-02    8.1742867188e+04
    1.6399800777e-02    8.1722953125e+04
    1.6409801319e-02    8.1703156250e+04
    1.6419799998e-02    8.1683500000e+04
    1.6429800540e-02    8.1663968750e+04
    1.6439799219e-02    8.1644554688e+04
    1.6449799761e-02    8.1625203125e+04
    1.6459798440e-02    8.1605898438e+04
    1.6469798982e-02    8.1586679688e+04
    1.6479799524e-02    8.1567601562e+04
    1.6489798203e-02    8.1548632812e+04
    1.6499798745e-02    8.1529710938e+04
    1.6509799287e-02    8.1510835938e+04
    1.6519797966e-02    8.1492085938e+04
    1.6529798508e-02    8.1473484375e+04
    1.6539799049e-02    8.1454992188e+04
    1.6549799591e-02    8.1436546875e+04
    1.6559800133e-02    8.1418195312e+04
    1.6569800675e-02    8.1399976562e+04
    1.6579801217e-02    8.1381851562e+04
    1.6589801759e-02    8.1363789062e+04
    1.6599802300e-02    8.1345812500e+04
    1.6609802842e-02    8.1327945312e+04
    1.6619803384e-02    8.1310187500e+04
    1.6629803926e-02    8.1292500000e+04
    1.6639804468e-02    8.1274875000e+04
    1.6649805009e-02    8.1257320312e+04
    1.6659805551e-02    8.1239898438e+04
    1.6669806093e-02    8.1222609375e+04
    1.6679806635e-02    8.1205406250e+04
    1.6689807177e-02    8.1188273438e+04
    1.6699807718e-02    8.1171218750e+04
    1.6709808260e-02    8.1154281250e+04
    1.6719808802e-02    8.1137445312e+04
    1.6729809344e-02    8.1120679688e+04
    1.6739811748e-02    8.1104007812e+04
    1.6749812290e-02    8.1087445312e+04
    1.6759812832e-02    8.1070968750e+04
    1.6769813374e-02    8.1054562500e+04
    1.6779813915e-02    8.1038234375e+04
    1.6789814457e-02    8.1022007812e+04
    1.6799814999e-02    8.1005890625e+04
    1.6809817404e-02    8.0989859375e+04
    1.6819817945e-02    8.0973929688e+04
    1.6829818487e-02    8.0958085938e+04
    1.6839819029e-02    8.0942328125e+04
    1.6849821433e-02    8.0926656250e+04
    1.6859821975e-02    8.0911062500e+04
    1.6869822517e-02    8.0895554688e+04
    1.6879824921e-02    8.0880148438e+04
    1.6889825463e-02    8.0864804688e+04
    1.6899826005e-02    8.0849546875e+04
    1.6909828410e-02    8.0834398438e+04
    1.6919828951e-02    8.0819375000e+04
    1.6929831356e-02    8.0804421875e+04
    1.6939831898e-02    8.0789507812e+04
    1.6949834302e-02    8.0774687500e+04
    1.6959834844e-02    8.0760015625e+04
    1.6969837248e-02    8.0745453125e+04
    1.6979837790e-02    8.0730937500e+04
    1.6989840195e-02    8.0716453125e+04
    1.6999840736e-02    8.0702078125e+04
    1.7009843141e-02    8.0687835938e+04
    1.7019845545e-02    8.0673695312e+04
    1.7029846087e-02    8.0659585938e+04
    1.7039848492e-02    8.0645546875e+04
    1.7049850896e-02    8.0631648438e+04
    1.7059853300e-02    8.0617859375e+04
    1.7069853842e-02    8.0604109375e+04
    1.7079856247e-02    8.0590429688e+04
    1.7089858651e-02    8.0576898438e+04
    1.7099861056e-02    8.0563476562e+04
    1.7109863460e-02    8.0550101562e+04
    1.7119865865e-02    8.0536757812e+04
    1.7129868269e-02    8.0523515625e+04
    1.7139870673e-02    8.0510414062e+04
    1.7149874941e-02    8.0497390625e+04
    1.7159877345e-02    8.0484398438e+04
    1.7169879749e-02    8.0471460938e+04
    1.7179882154e-02    8.0458664062e+04
    1.7189886421e-02    8.0445992188e+04
    1.7199888825e-02    8.0433390625e+04
    1.7209893093e-02    8.0420835938e+04
    1.7219897360e-02    8.0408398438e+04
    1.7229899764e-02    8.0396078125e+04
    1.7239904031e-02    8.0383828125e+04
    1.7249908298e-02    8.0371609375e+04
    1.7259910703e-02    8.0359460938e+04
    1.7269914970e-02    8.0347437500e+04
    1.7279919237e-02    8.0335523438e+04
    1.7289923504e-02    8.0323679688e+04
    1.7299927771e-02    8.0311890625e+04
    1.7309932038e-02    8.0300195312e+04
    1.7319938168e-02    8.0288578125e+04
    1.7329942435e-02    8.0277039062e+04
    1.7339948565e-02    8.0265609375e+04
    1.7349952832e-02    8.0254320312e+04
    1.7359958962e-02    8.0243109375e+04
    1.7369963229e-02    8.0231898438e+04
    1.7379969358e-02    8.0220726562e+04
    1.7389973626e-02    8.0209664062e+04
    1.7399979755e-02    8.0198757812e+04
    1.7409985885e-02    8.0187929688e+04
    1.7419992015e-02    8.0177140625e+04
    1.7429998145e-02    8.0166437500e+04
    1.7439749092e-02    8.0156140625e+04
    1.7449755222e-02    8.0145632812e+04
    1.7459761351e-02    8.0135148438e+04
    1.7469767481e-02    8.0124750000e+04
    1.7479775473e-02    8.0114492188e+04
    1.7489781603e-02    8.0104335938e+04
    1.7499787733e-02    8.0094242188e+04
    1.7509795725e-02    8.0084218750e+04
    1.7519801855e-02    8.0074296875e+04
    1.7529809847e-02    8.0064468750e+04
    1.7539815977e-02    8.0054687500e+04
    1.7549823970e-02    8.0044960938e+04
    1.7559830099e-02    8.0035359375e+04
    1.7569838092e-02    8.0025890625e+04
    1.7579846084e-02    8.0016476562e+04
    1.7589855939e-02    8.0007062500e+04
    1.7599863932e-02    7.9997750000e+04
    1.7609871924e-02    7.9988601562e+04
    1.7619879916e-02    7.9979554688e+04
    1.7629887909e-02    7.9970515625e+04
    1.7639897764e-02    7.9961507812e+04
    1.7649905756e-02    7.9952609375e+04
    1.7659915611e-02    7.9943828125e+04
    1.7669923604e-02    7.9935132812e+04
    1.7679933459e-02    7.9926484375e+04
    1.7689941451e-02    7.9917914062e+04
    1.7699951306e-02    7.9909476562e+04
    1.7709961161e-02    7.9901164062e+04
    1.7719971016e-02    7.9892875000e+04
    1.7729980871e-02    7.9884609375e+04
    1.7739990726e-02    7.9876453125e+04
    1.7749743536e-02    7.9868640625e+04
    1.7759753391e-02    7.9860710938e+04
    1.7769763246e-02    7.9852835938e+04
    1.7779773101e-02    7.9845015625e+04
    1.7789784819e-02    7.9837281250e+04
    1.7799794674e-02    7.9829640625e+04
    1.7809806392e-02    7.9822085938e+04
    1.7819816247e-02    7.9814625000e+04
    1.7829827964e-02    7.9807234375e+04
    1.7839837819e-02    7.9799875000e+04
    1.7849849537e-02    7.9792585938e+04
    1.7859861255e-02    7.9785437500e+04
    1.7869872972e-02    7.9778453125e+04
    1.7879884690e-02    7.9771515625e+04
    1.7889896408e-02    7.9764562500e+04
    1.7899908125e-02    7.9757664062e+04
    1.7909919843e-02    7.9750906250e+04
    1.7919931561e-02    7.9744265625e+04
    1.7929943278e-02    7.9737671875e+04
    1.7939956859e-02    7.9731140625e+04
    1.7949968576e-02    7.9724710938e+04
    1.7959982157e-02    7.9718390625e+04
    1.7969993874e-02    7.9712125000e+04
    1.7979750410e-02    7.9706062500e+04
    1.7989763990e-02    7.9699921875e+04
    1.7999775708e-02    7.9693906250e+04
    1.8009789288e-02    7.9688000000e+04
    1.8019802868e-02    7.9682148438e+04
    1.8029816449e-02    7.9676375000e+04
    1.8039830029e-02    7.9670687500e+04
    1.8049843609e-02    7.9665085938e+04
    1.8059857190e-02    7.9659531250e+04
    1.8069870770e-02    7.9654039062e+04
    1.8079886213e-02    7.9648679688e+04
    1.8089899793e-02    7.9643460938e+04
    1.8099913374e-02    7.9638265625e+04
    1.8109928817e-02    7.9633062500e+04
    1.8119942397e-02    7.9627945312e+04
    1.8129957840e-02    7.9622984375e+04
    1.8139973283e-02    7.9618109375e+04
    1.8149986863e-02    7.9613257812e+04
    1.8159745261e-02    7.9608609375e+04
    1.8169760704e-02    7.9603968750e+04
    1.8179776147e-02    7.9599437500e+04
    1.8189791590e-02    7.9594976562e+04
    1.8199807033e-02    7.9590585938e+04
    1.8209822476e-02    7.9586281250e+04
    1.8219837919e-02    7.9582085938e+04
    1.8229853362e-02    7.9577937500e+04
    1.8239868805e-02    7.9573835938e+04
    1.8249884248e-02    7.9569828125e+04
    1.8259901553e-02    7.9565921875e+04
    1.8269916996e-02    7.9562062500e+04
    1.8279932439e-02    7.9558250000e+04
    1.8289949745e-02    7.9554546875e+04
    1.8299965188e-02    7.9550976562e+04
    1.8309982494e-02    7.9547453125e+04
    1.8319999799e-02    7.9543976562e+04
    1.8329758197e-02    7.9540687500e+04
    1.8339775503e-02    7.9537460938e+04
    1.8349792808e-02    7.9534320312e+04
    1.8359810114e-02    7.9531203125e+04
    1.8369827420e-02    7.9528125000e+04
    1.8379844725e-02    7.9525203125e+04
    1.8389862031e-02    7.9522429688e+04
    1.8399879336e-02    7.9519687500e+04
    1.8409896642e-02    7.9516921875e+04
    1.8419913948e-02    7.9514242188e+04
    1.8429931253e-02    7.9511703125e+04
    1.8439948559e-02    7.9509257812e+04
    1.8449967727e-02    7.9506875000e+04
    1.8459985033e-02    7.9504601562e+04
    1.8469747156e-02    7.9502539062e+04
    1.8479764462e-02    7.9500476562e+04
    1.8489781767e-02    7.9498390625e+04
    1.8499800935e-02    7.9496359375e+04
    1.8509820104e-02    7.9494500000e+04
    1.8519837409e-02    7.9492804688e+04
    1.8529856578e-02    7.9491125000e+04
    1.8539875746e-02    7.9489421875e+04
    1.8549893051e-02    7.9487796875e+04
    1.8559912220e-02    7.9486343750e+04
    1.8569931388e-02    7.9485000000e+04
    1.8579950556e-02    7.9483710938e+04
    1.8589969724e-02    7.9482484375e+04
    1.8599988893e-02    7.9481359375e+04
    1.8609751016e-02    7.9480343750e+04
    1.8619770184e-02    7.9479351562e+04
    1.8629789352e-02    7.9478437500e+04
    1.8639808521e-02    7.9477640625e+04
    1.8649829552e-02    7.9476968750e+04
    1.8659848720e-02    7.9476367188e+04
    1.8669867888e-02    7.9475804688e+04
    1.8679888919e-02    7.9475304688e+04
    1.8689908087e-02    7.9474875000e+04
    1.8699927256e-02    7.9474546875e+04
    1.8709948286e-02    7.9474320312e+04
    1.8719967455e-02    7.9474187500e+04
    1.8729988486e-02    7.9474117188e+04
    1.8739752471e-02    7.9474101562e+04
    1.8749771640e-02    7.9474179688e+04
    1.8759792671e-02    7.9474382812e+04
    1.8769813702e-02    7.9474726562e+04
    1.8779832870e-02    7.9475140625e+04
    1.8789853901e-02    7.9475578125e+04
    1.8799874932e-02    7.9476085938e+04
    1.8809895962e-02    7.9476734375e+04
    1.8819916993e-02    7.9477500000e+04
    1.8829938024e-02    7.9478304688e+04
    1.8839959055e-02    7.9479156250e+04
    1.8849980086e-02    7.9480140625e+04
    1.8859744072e-02    7.9481250000e+04
    1.8869765103e-02    7.9482476562e+04
    1.8879786134e-02    7.9483765625e+04
    1.8889807165e-02    7.9485148438e+04
    1.8899828196e-02    7.9486648438e+04
    1.8909851089e-02    7.9488234375e+04
    1.8919872120e-02    7.9489875000e+04
    1.8929893151e-02    7.9491546875e+04
    1.8939914182e-02    7.9493320312e+04
    1.8949937075e-02    7.9495218750e+04
    1.8959958106e-02    7.9497203125e+04
    1.8969981000e-02    7.9499242188e+04
    1.8979744986e-02    7.9501296875e+04
    1.8989767879e-02    7.9503507812e+04
    1.8999788910e-02    7.9505812500e+04
    1.9009811804e-02    7.9508187500e+04
    1.9019832835e-02    7.9510664062e+04
    1.9029855728e-02    7.9513250000e+04
    1.9039878622e-02    7.9515929688e+04
    1.9049899653e-02    7.9518664062e+04
    1.9059922546e-02    7.9521476562e+04
    1.9069945440e-02    7.9524414062e+04
    1.9079966471e-02    7.9527492188e+04
    1.9089989364e-02    7.9530656250e+04
    1.9099755213e-02    7.9533796875e+04
    1.9109778106e-02    7.9537078125e+04
    1.9119801000e-02    7.9540453125e+04
    1.9129823893e-02    7.9543960938e+04
    1.9139846787e-02    7.9547593750e+04
    1.9149869680e-02    7.9551328125e+04
    1.9159892574e-02    7.9555117188e+04
    1.9169915468e-02    7.9558953125e+04
    1.9179938361e-02    7.9562859375e+04
    1.9189961255e-02    7.9566882812e+04
    1.9199984148e-02    7.9571007812e+04
    1.9209749997e-02    7.9575109375e+04
    1.9219772890e-02    7.9579382812e+04
    1.9229795784e-02    7.9583773438e+04
    1.9239820540e-02    7.9588289062e+04
    1.9249843433e-02    7.9592882812e+04
    1.9259866327e-02    7.9597515625e+04
    1.9269889221e-02    7.9602242188e+04
    1.9279913977e-02    7.9607125000e+04
    1.9289936870e-02    7.9612125000e+04
    1.9299959764e-02    7.9617179688e+04
    1.9309982657e-02    7.9622296875e+04
    1.9319750369e-02    7.9627390625e+04
    1.9329773262e-02    7.9632773438e+04
    1.9339798018e-02    7.9638289062e+04
    1.9349820912e-02    7.9643867188e+04
    1.9359845668e-02    7.9649484375e+04
    1.9369868562e-02    7.9655195312e+04
    1.9379893318e-02    7.9661039062e+04
    1.9389916211e-02    7.9667031250e+04
    1.9399940968e-02    7.9673125000e+04
    1.9409963861e-02    7.9679289062e+04
    1.9419988617e-02    7.9685523438e+04
    1.9429754466e-02    7.9691679688e+04
    1.9439779222e-02    7.9698101562e+04
[...]
    1.1513999104e-01    1.0123572656e+05
    1.1514977366e-01    1.0123571875e+05
    1.1515984684e-01    1.0123571094e+05
    1.1516992003e-01    1.0123571094e+05
    1.1517999321e-01    1.0123568750e+05
    1.1518977582e-01    1.0123567969e+05
    1.1519984901e-01    1.0123566406e+05
    1.1520992219e-01    1.0123566406e+05
    1.1521999538e-01    1.0123564844e+05
    1.1522977799e-01    1.0123564844e+05
    1.1523985118e-01    1.0123563281e+05
    1.1524992436e-01    1.0123561719e+05
    1.1525970697e-01    1.0123560156e+05
    1.1526978016e-01    1.0123560156e+05
    1.1527985334e-01    1.0123559375e+05
    1.1528992653e-01    1.0123558594e+05
    1.1529970914e-01    1.0123557031e+05
    1.1530978233e-01    1.0123556250e+05
    1.1531985551e-01    1.0123553906e+05
    1.1532992870e-01    1.0123553906e+05
    1.1533971131e-01    1.0123553125e+05
    1.1534978449e-01    1.0123552344e+05
    1.1535985768e-01    1.0123550781e+05
    1.1536993086e-01    1.0123550000e+05
    1.1537971348e-01    1.0123549219e+05
    1.1538978666e-01    1.0123547656e+05
    1.1539985985e-01    1.0123546875e+05
    1.1540994048e-01    1.0123546094e+05
    1.1541971564e-01    1.0123546094e+05
    1.1542978883e-01    1.0123543750e+05
    1.1543986201e-01    1.0123542969e+05
    1.1544994265e-01    1.0123541406e+05
    1.1545971781e-01    1.0123540625e+05
    1.1546979100e-01    1.0123539844e+05
    1.1547986418e-01    1.0123539844e+05
    1.1548994482e-01    1.0123538281e+05
    1.1549971998e-01    1.0123536719e+05
    1.1550979316e-01    1.0123535156e+05
    1.1551986635e-01    1.0123535156e+05
    1.1552994698e-01    1.0123534375e+05
    1.1553972214e-01    1.0123533594e+05
    1.1554979533e-01    1.0123532031e+05
    1.1555987597e-01    1.0123531250e+05
    1.1556994915e-01    1.0123528906e+05
    1.1557972431e-01    1.0123528906e+05
    1.1558979750e-01    1.0123528125e+05
    1.1559987813e-01    1.0123527344e+05
    1.1560995132e-01    1.0123525781e+05
    1.1561972648e-01    1.0123525000e+05
    1.1562979966e-01    1.0123524219e+05
    1.1563988030e-01    1.0123522656e+05
    1.1564995348e-01    1.0123522656e+05
    1.1565972865e-01    1.0123521875e+05
    1.1566980183e-01    1.0123521094e+05
    1.1567988247e-01    1.0123519531e+05
    1.1568995565e-01    1.0123518750e+05
    1.1569973081e-01    1.0123517969e+05
    1.1570981145e-01    1.0123516406e+05
    1.1571988463e-01    1.0123516406e+05
    1.1572995782e-01    1.0123515625e+05
    1.1573973298e-01    1.0123514844e+05
    1.1574981362e-01    1.0123513281e+05
    1.1575988680e-01    1.0123512500e+05
    1.1576995999e-01    1.0123510156e+05
    1.1577973515e-01    1.0123510156e+05
    1.1578981578e-01    1.0123509375e+05
    1.1579988897e-01    1.0123508594e+05
    1.1580996215e-01    1.0123507031e+05
    1.1581973732e-01    1.0123505469e+05
    1.1582981795e-01    1.0123503906e+05
    1.1583989114e-01    1.0123503906e+05
    1.1584996432e-01    1.0123502344e+05
    1.1585974693e-01    1.0123502344e+05
    1.1586982012e-01    1.0123500781e+05
    1.1587989330e-01    1.0123500000e+05
    1.1588996649e-01    1.0123499219e+05
    1.1589974910e-01    1.0123497656e+05
    1.1590982229e-01    1.0123497656e+05
    1.1591989547e-01    1.0123496875e+05
    1.1592996866e-01    1.0123496094e+05
    1.1593975127e-01    1.0123496094e+05
    1.1594982445e-01    1.0123493750e+05
    1.1595989764e-01    1.0123492969e+05
    1.1596997082e-01    1.0123491406e+05
    1.1597975343e-01    1.0123490625e+05
    1.1598982662e-01    1.0123489844e+05
    1.1599989980e-01    1.0123489844e+05
    1.1600997299e-01    1.0123487500e+05
    1.1601975560e-01    1.0123486719e+05
    1.1602982879e-01    1.0123485156e+05
    1.1603990197e-01    1.0123484375e+05
    1.1604997516e-01    1.0123483594e+05
    1.1605975777e-01    1.0123483594e+05
    1.1606983095e-01    1.0123482031e+05
    1.1607990414e-01    1.0123480469e+05
    1.1608997732e-01    1.0123478906e+05
    1.1609975994e-01    1.0123478125e+05
    1.1610983312e-01    1.0123477344e+05
    1.1611990631e-01    1.0123475781e+05
    1.1612997949e-01    1.0123475000e+05
    1.1613976210e-01    1.0123474219e+05
    1.1614983529e-01    1.0123472656e+05
    1.1615990847e-01    1.0123472656e+05
    1.1616998911e-01    1.0123471875e+05
    1.1617976427e-01    1.0123471094e+05
    1.1618983746e-01    1.0123471094e+05
    1.1619991064e-01    1.0123469531e+05
    1.1620999128e-01    1.0123468750e+05
    1.1621976644e-01    1.0123467969e+05
    1.1622983962e-01    1.0123466406e+05
    1.1623991281e-01    1.0123466406e+05
    1.1624999344e-01    1.0123464844e+05
    1.1625976861e-01    1.0123464844e+05
    1.1626984179e-01    1.0123463281e+05
    1.1627991498e-01    1.0123461719e+05
    1.1628999561e-01    1.0123460156e+05
    1.1629977077e-01    1.0123460156e+05
    1.1630984396e-01    1.0123458594e+05
    1.1631992459e-01    1.0123458594e+05
    1.1632999778e-01    1.0123457031e+05
    1.1633977294e-01    1.0123456250e+05
    1.1634984612e-01    1.0123453906e+05
    1.1635992676e-01    1.0123453906e+05
    1.1636999995e-01    1.0123453125e+05
    1.1637977511e-01    1.0123452344e+05
    1.1638984829e-01    1.0123452344e+05
    1.1639992893e-01    1.0123450000e+05
    1.1640970409e-01    1.0123449219e+05
    1.1641977727e-01    1.0123447656e+05
    1.1642985791e-01    1.0123447656e+05
    1.1643993109e-01    1.0123446875e+05
    1.1644970626e-01    1.0123446094e+05
    1.1645977944e-01    1.0123444531e+05
    1.1646986008e-01    1.0123443750e+05
    1.1647993326e-01    1.0123442969e+05
    1.1648970842e-01    1.0123441406e+05
    1.1649978161e-01    1.0123441406e+05
    1.1650986224e-01    1.0123440625e+05
    1.1651993543e-01    1.0123439844e+05
    1.1652971059e-01    1.0123439844e+05
    1.1653978378e-01    1.0123437500e+05
    1.1654986441e-01    1.0123436719e+05
    1.1655993760e-01    1.0123435156e+05
    1.1656971276e-01    1.0123434375e+05
    1.1657979339e-01    1.0123433594e+05
    1.1658986658e-01    1.0123433594e+05
    1.1659993976e-01    1.0123432031e+05
    1.1660971493e-01    1.0123430469e+05
    1.1661979556e-01    1.0123428906e+05
    1.1662986875e-01    1.0123428906e+05
    1.1663994193e-01    1.0123428125e+05
    1.1664971709e-01    1.0123427344e+05
    1.1665979773e-01    1.0123427344e+05
    1.1666987091e-01    1.0123425781e+05
    1.1667994410e-01    1.0123424219e+05
    1.1668971926e-01    1.0123422656e+05
    1.1669979990e-01    1.0123422656e+05
    1.1670987308e-01    1.0123421875e+05
    1.1671994627e-01    1.0123421094e+05
    1.1672972888e-01    1.0123421094e+05
    1.1673980206e-01    1.0123418750e+05
    1.1674987525e-01    1.0123417969e+05
    1.1675994843e-01    1.0123416406e+05
    1.1676973104e-01    1.0123416406e+05
    1.1677980423e-01    1.0123414844e+05
    1.1678987741e-01    1.0123414844e+05
    1.1679995060e-01    1.0123413281e+05
    1.1680973321e-01    1.0123412500e+05
    1.1681980640e-01    1.0123411719e+05
    1.1682987958e-01    1.0123410156e+05
    1.1683995277e-01    1.0123409375e+05
    1.1684973538e-01    1.0123408594e+05
    1.1685980856e-01    1.0123408594e+05
    1.1686988175e-01    1.0123407031e+05
    1.1687995493e-01    1.0123406250e+05
    1.1688973755e-01    1.0123405469e+05
    1.1689981073e-01    1.0123403906e+05
    1.1690988392e-01    1.0123403906e+05
    1.1691995710e-01    1.0123402344e+05
    1.1692973971e-01    1.0123402344e+05
    1.1693981290e-01    1.0123400781e+05
    1.1694988608e-01    1.0123400000e+05
    1.1695995927e-01    1.0123397656e+05
    1.1696974188e-01    1.0123397656e+05
    1.1697981507e-01    1.0123396875e+05
    1.1698988825e-01    1.0123396094e+05
    1.1699996144e-01    1.0123394531e+05
    1.1700974405e-01    1.0123393750e+05
    1.1701981723e-01    1.0123392969e+05
    1.1702989042e-01    1.0123391406e+05
    1.1703997105e-01    1.0123391406e+05
    1.1704974622e-01    1.0123390625e+05
    1.1705981940e-01    1.0123389844e+05
    1.1706989259e-01    1.0123388281e+05
    1.1707997322e-01    1.0123387500e+05
    1.1708974838e-01    1.0123386719e+05
    1.1709982157e-01    1.0123385156e+05
    1.1710989475e-01    1.0123385156e+05
    1.1711997539e-01    1.0123384375e+05
    1.1712975055e-01    1.0123383594e+05
    1.1713982373e-01    1.0123382031e+05
    1.1714990437e-01    1.0123381250e+05
    1.1715997756e-01    1.0123380469e+05
    1.1716975272e-01    1.0123378906e+05
    1.1717982590e-01    1.0123378906e+05
    1.1718990654e-01    1.0123377344e+05
    1.1719997972e-01    1.0123377344e+05
    1.1720975488e-01    1.0123375781e+05
    1.1721982807e-01    1.0123375000e+05
    1.1722990870e-01    1.0123374219e+05
    1.1723998189e-01    1.0123372656e+05
    1.1724975705e-01    1.0123371875e+05
    1.1725983024e-01    1.0123371094e+05
    1.1726991087e-01    1.0123371094e+05
    1.1727998406e-01    1.0123369531e+05
    1.1728975922e-01    1.0123368750e+05
    1.1729983985e-01    1.0123366406e+05
    1.1730991304e-01    1.0123366406e+05
    1.1731998622e-01    1.0123365625e+05
    1.1732976139e-01    1.0123364844e+05
    1.1733984202e-01    1.0123364844e+05
    1.1734991521e-01    1.0123363281e+05
    1.1735998839e-01    1.0123362500e+05
    1.1736976355e-01    1.0123360156e+05
    1.1737984419e-01    1.0123360156e+05
    1.1738991737e-01    1.0123359375e+05
    1.1739999056e-01    1.0123358594e+05
    1.1740977317e-01    1.0123358594e+05
    1.1741984636e-01    1.0123357031e+05
    1.1742991954e-01    1.0123356250e+05
    1.1743999273e-01    1.0123353906e+05
    1.1744977534e-01    1.0123353906e+05
    1.1745984852e-01    1.0123353125e+05
    1.1746992171e-01    1.0123352344e+05
    1.1747999489e-01    1.0123352344e+05
    1.1748977751e-01    1.0123350781e+05
    1.1749985069e-01    1.0123350000e+05
    1.1750992388e-01    1.0123347656e+05
    1.1751999706e-01    1.0123347656e+05
    1.1752977967e-01    1.0123346875e+05
    1.1753985286e-01    1.0123346094e+05
    1.1754992604e-01    1.0123346094e+05
    1.1755970865e-01    1.0123343750e+05
    1.1756978184e-01    1.0123342969e+05
    1.1757985502e-01    1.0123341406e+05
    1.1758992821e-01    1.0123341406e+05
    1.1759971082e-01    1.0123340625e+05
    1.1760978401e-01    1.0123339844e+05
    1.1761985719e-01    1.0123338281e+05
    1.1762993038e-01    1.0123337500e+05
    1.1763971299e-01    1.0123336719e+05
    1.1764978617e-01    1.0123335156e+05
    1.1765985936e-01    1.0123334375e+05
    1.1766993254e-01    1.0123333594e+05
    1.1767971516e-01    1.0123333594e+05
    1.1768978834e-01    1.0123331250e+05
    1.1769986153e-01    1.0123330469e+05
    1.1770993471e-01    1.0123328906e+05
    1.1771971732e-01    1.0123328906e+05
    1.1772979051e-01    1.0123328125e+05
    1.1773986369e-01    1.0123327344e+05
    1.1774993688e-01    1.0123327344e+05
    1.1775971949e-01    1.0123325000e+05
    1.1776979268e-01    1.0123324219e+05
    1.1777986586e-01    1.0123322656e+05
    1.1778994650e-01    1.0123321875e+05
    1.1779972166e-01    1.0123321094e+05
    1.1780979484e-01    1.0123319531e+05
    1.1781986803e-01    1.0123318750e+05
    1.1782994866e-01    1.0123317969e+05
    1.1783972383e-01    1.0123316406e+05
    1.1784979701e-01    1.0123316406e+05
    1.1785987020e-01    1.0123315625e+05
    1.1786995083e-01    1.0123314844e+05
    1.1787972599e-01    1.0123314844e+05
    1.1788979918e-01    1.0123313281e+05
    1.1789987981e-01    1.0123312500e+05
    1.1790995300e-01    1.0123311719e+05
    1.1791972816e-01    1.0123310156e+05
    1.1792980134e-01    1.0123309375e+05
    1.1793988198e-01    1.0123308594e+05
    1.1794995517e-01    1.0123308594e+05
    1.1795973033e-01    1.0123307031e+05
    1.1796980351e-01    1.0123306250e+05
    1.1797988415e-01    1.0123306250e+05
    1.1798995733e-01    1.0123305469e+05
    1.1799973249e-01    1.0123303906e+05
    1.1800981313e-01    1.0123303906e+05
    1.1801988631e-01    1.0123302344e+05
    1.1802995950e-01    1.0123302344e+05
    1.1803973466e-01    1.0123300781e+05
    1.1804981530e-01    1.0123300000e+05
    1.1805988848e-01    1.0123297656e+05
    1.1806996167e-01    1.0123297656e+05
    1.1807973683e-01    1.0123296094e+05
    1.1808981746e-01    1.0123296094e+05
    1.1809989065e-01    1.0123294531e+05
    1.1810996383e-01    1.0123293750e+05
    1.1811974645e-01    1.0123292969e+05
    1.1812981963e-01    1.0123291406e+05
    1.1813989282e-01    1.0123291406e+05
    1.1814996600e-01    1.0123290625e+05
    1.1815974861e-01    1.0123289844e+05
    1.1816982180e-01    1.0123289844e+05
    1.1817989498e-01    1.0123289844e+05
    1.1818996817e-01    1.0123288281e+05
    1.1819975078e-01    1.0123287500e+05
    1.1820982397e-01    1.0123285156e+05
    1.1821989715e-01    1.0123285156e+05
    1.1822997034e-01    1.0123283594e+05
    1.1823975295e-01    1.0123283594e+05
    1.1824982613e-01    1.0123282031e+05
    1.1825989932e-01    1.0123280469e+05
    1.1826997250e-01    1.0123278906e+05
    1.1827975512e-01    1.0123278906e+05
    1.1828982830e-01    1.0123278125e+05
    1.1829990149e-01    1.0123277344e+05
    1.1830997467e-01    1.0123277344e+05
    1.1831975728e-01    1.0123275781e+05
    1.1832983047e-01    1.0123275000e+05
    1.1833990365e-01    1.0123274219e+05
    1.1834998429e-01    1.0123272656e+05
    1.1835975945e-01    1.0123272656e+05
    1.1836983263e-01    1.0123271875e+05
    1.1837990582e-01    1.0123271094e+05
    1.1838998646e-01    1.0123269531e+05
    1.1839976162e-01    1.0123268750e+05
    1.1840983480e-01    1.0123267969e+05
    1.1841990799e-01    1.0123266406e+05
    1.1842998862e-01    1.0123266406e+05
    1.1843976378e-01    1.0123265625e+05
    1.1844983697e-01    1.0123264844e+05
    1.1845991760e-01    1.0123264844e+05
    1.1846999079e-01    1.0123262500e+05
    1.1847976595e-01    1.0123261719e+05
    1.1848983914e-01    1.0123260156e+05
    1.1849991977e-01    1.0123260156e+05
    1.1850999296e-01    1.0123259375e+05
    1.1851976812e-01    1.0123258594e+05
    1.1852984130e-01    1.0123258594e+05
    1.1853992194e-01    1.0123257031e+05
    1.1854999512e-01    1.0123255469e+05
    1.1855977029e-01    1.0123253906e+05
    1.1856985092e-01    1.0123253906e+05
    1.1857992411e-01    1.0123253125e+05
    1.1858999729e-01    1.0123252344e+05
    1.1859977245e-01    1.0123250781e+05
    1.1860985309e-01    1.0123250000e+05
    1.1861992627e-01    1.0123249219e+05
    1.1862999946e-01    1.0123247656e+05
    1.1863977462e-01    1.0123247656e+05
    1.1864985526e-01    1.0123246875e+05
    1.1865992844e-01    1.0123246094e+05
    1.1866970360e-01    1.0123246094e+05
    1.1867978424e-01    1.0123244531e+05
    1.1868985742e-01    1.0123243750e+05
    1.1869993061e-01    1.0123242969e+05
    1.1870970577e-01    1.0123241406e+05
    1.1871978641e-01    1.0123241406e+05
    1.1872985959e-01    1.0123240625e+05
    1.1873993278e-01    1.0123239844e+05
    1.1874970794e-01    1.0123239844e+05
    1.1875978857e-01    1.0123238281e+05
    1.1876986176e-01    1.0123237500e+05
    1.1877993494e-01    1.0123236719e+05
    1.1878971756e-01    1.0123235156e+05
    1.1879979074e-01    1.0123235156e+05
    1.1880986392e-01    1.0123234375e+05
    1.1881993711e-01    1.0123233594e+05
    1.1882971972e-01    1.0123232031e+05
    1.1883979291e-01    1.0123231250e+05
    1.1884986609e-01    1.0123230469e+05
    1.1885993928e-01    1.0123228906e+05
    1.1886972189e-01    1.0123228906e+05
    1.1887979507e-01    1.0123228125e+05
    1.1888986826e-01    1.0123227344e+05
    1.1889994144e-01    1.0123227344e+05
    1.1890972406e-01    1.0123225781e+05
    1.1891979724e-01    1.0123225000e+05
    1.1892987043e-01    1.0123224219e+05
    1.1893994361e-01    1.0123222656e+05
    1.1894972622e-01    1.0123222656e+05
    1.1895979941e-01    1.0123221875e+05
    1.1896987259e-01    1.0123221094e+05
    1.1897994578e-01    1.0123221094e+05
    1.1898972839e-01    1.0123219531e+05
    1.1899980158e-01    1.0123218750e+05
    1.1900987476e-01    1.0123217969e+05
    1.1901995540e-01    1.0123216406e+05
    1.1902973056e-01    1.0123216406e+05
    1.1903980374e-01    1.0123214844e+05
    1.1904987693e-01    1.0123214844e+05
    1.1905995756e-01    1.0123213281e+05
    1.1906973273e-01    1.0123212500e+05
    1.1907980591e-01    1.0123211719e+05
    1.1908987910e-01    1.0123210156e+05
    1.1909995973e-01    1.0123210156e+05
    1.1910973489e-01    1.0123209375e+05
    1.1911980808e-01    1.0123208594e+05
    1.1912988871e-01    1.0123208594e+05
    1.1913996190e-01    1.0123207031e+05
    1.1914973706e-01    1.0123206250e+05
    1.1915981025e-01    1.0123205469e+05
    1.1916989088e-01    1.0123203906e+05
    1.1917996407e-01    1.0123203906e+05
    1.1918973923e-01    1.0123202344e+05
    1.1919981241e-01    1.0123202344e+05
    1.1920989305e-01    1.0123200781e+05
    1.1921996623e-01    1.0123200000e+05
    1.1922974139e-01    1.0123199219e+05
    1.1923982203e-01    1.0123197656e+05
    1.1924989522e-01    1.0123197656e+05
    1.1925996840e-01    1.0123196875e+05
    1.1926974356e-01    1.0123196094e+05
    1.1927982420e-01    1.0123194531e+05
    1.1928989738e-01    1.0123193750e+05
    1.1929997057e-01    1.0123192969e+05
    1.1930974573e-01    1.0123191406e+05
    1.1931982636e-01    1.0123191406e+05
    1.1932989955e-01    1.0123190625e+05
    1.1933997273e-01    1.0123189844e+05
    1.1934975535e-01    1.0123189844e+05
    1.1935982853e-01    1.0123188281e+05
    1.1936990172e-01    1.0123187500e+05
    1.1937997490e-01    1.0123186719e+05
    1.1938975751e-01    1.0123185156e+05
    1.1939983070e-01    1.0123185156e+05
    1.1940990388e-01    1.0123184375e+05
    1.1941997707e-01    1.0123184375e+05
    1.1942975968e-01    1.0123183594e+05
    1.1943983287e-01    1.0123183594e+05
    1.1944990605e-01    1.0123182031e+05
    1.1945997924e-01    1.0123181250e+05
    1.1946976185e-01    1.0123180469e+05
    1.1947983503e-01    1.0123178906e+05
    1.1948990822e-01    1.0123178906e+05
    1.1949998140e-01    1.0123178125e+05
    1.1950976402e-01    1.0123177344e+05
    1.1951983720e-01    1.0123177344e+05
    1.1952991039e-01    1.0123175781e+05
    1.1953998357e-01    1.0123175000e+05
    1.1954976618e-01    1.0123174219e+05
    1.1955983937e-01    1.0123172656e+05
    1.1956991255e-01    1.0123172656e+05
    1.1957999319e-01    1.0123171875e+05
    1.1958976835e-01    1.0123171094e+05
    1.1959984154e-01    1.0123171094e+05
    1.1960991472e-01    1.0123169531e+05
    1.1961999536e-01    1.0123168750e+05
    1.1962977052e-01    1.0123167969e+05
    1.1963984370e-01    1.0123166406e+05
    1.1964992434e-01    1.0123166406e+05
    1.1965999752e-01    1.0123165625e+05
    1.1966977268e-01    1.0123164844e+05
    1.1967984587e-01    1.0123163281e+05
    1.1968992651e-01    1.0123162500e+05
    1.1969999969e-01    1.0123161719e+05
    1.1970977485e-01    1.0123160156e+05
    1.1971984804e-01    1.0123160156e+05
    1.1972992867e-01    1.0123159375e+05
    1.1973970383e-01    1.0123158594e+05
    1.1974977702e-01    1.0123158594e+05
    1.1975985765e-01    1.0123157031e+05
    1.1976993084e-01    1.0123156250e+05
    1.1977970600e-01    1.0123155469e+05
    1.1978977919e-01    1.0123153906e+05
    1.1979985982e-01    1.0123153906e+05
    1.1980993301e-01    1.0123153125e+05
    1.1981970817e-01    1.0123152344e+05
    1.1982978135e-01    1.0123152344e+05
    1.1983986199e-01    1.0123150781e+05
    1.1984993517e-01    1.0123150000e+05
    1.1985971034e-01    1.0123149219e+05
    1.1986979097e-01    1.0123147656e+05
    1.1987986416e-01    1.0123146875e+05
    1.1988993734e-01    1.0123146094e+05
    1.1989971250e-01    1.0123146094e+05
    1.1990979314e-01    1.0123144531e+05
    1.1991986632e-01    1.0123143750e+05
    1.1992993951e-01    1.0123142969e+05
    1.1993971467e-01    1.0123141406e+05
    1.1994979531e-01    1.0123141406e+05
    1.1995986849e-01    1.0123140625e+05
    1.1996994168e-01    1.0123139844e+05
    1.1997972429e-01    1.0123139844e+05
    1.1998979747e-01    1.0123138281e+05
    1.1999987066e-01    1.0123137500e+05
endcurve
