Curveplot
LS-DYNA keyword deck by LS-PrePost                          
Time
Pressure
Defined Connection
Pressure @ 57 #pts=14001
* Minval=     9.6386804688e+04 at time=         0.0879698470
* Maxval=     1.1386053906e+05 at time=         0.0658597350
    0.0000000000e+00    1.0120000000e+05
    9.9483822851e-06    1.0120000000e+05
    1.9897126549e-05    1.0120000000e+05
    2.9949087548e-05    1.0120000000e+05
    3.9958042180e-05    1.0120000000e+05
    4.9997677706e-05    1.0120000000e+05
    5.9945636167e-05    1.0120000000e+05
    6.9979665568e-05    1.0120000000e+05
    7.9974372056e-05    1.0120000000e+05
    8.9941480837e-05    1.0120000000e+05
    9.9961798696e-05    1.0120000000e+05
    1.0997441859e-04    1.0120000000e+05
    1.1997130787e-04    1.0120000000e+05
    1.2993937708e-04    1.0120000000e+05
    1.3994144683e-04    1.0120000000e+05
    1.4997186372e-04    1.0120000000e+05
    1.5995124704e-04    1.0120000000e+05
    1.6994583711e-04    1.0120000000e+05
    1.7994971131e-04    1.0120000000e+05
    1.8995690334e-04    1.0120000000e+05
    1.9996135961e-04    1.0120000000e+05
    2.0995689556e-04    1.0120000000e+05
    2.1993723931e-04    1.0120000000e+05
    2.2997823544e-04    1.0120000000e+05
    2.3999350378e-04    1.0120000000e+05
    2.4997661239e-04    1.0120000000e+05
    2.5992127485e-04    1.0120000000e+05
    2.6999431429e-04    1.0120000000e+05
    2.7993251570e-04    1.0120000000e+05
    2.8999245842e-04    1.0120000000e+05
    2.9999425169e-04    1.0120000000e+05
    3.0993128894e-04    1.0120000000e+05
    3.1998063787e-04    1.0120000000e+05
    3.2995577203e-04    1.0120000000e+05
    3.3994353726e-04    1.0120000000e+05
    3.4993805457e-04    1.0120000000e+05
    3.5992899211e-04    1.0120000000e+05
    3.6990852095e-04    1.0120000000e+05
    3.7997227628e-04    1.0120000000e+05
    3.8992517511e-04    1.0120000000e+05
    3.9996069972e-04    1.0120000000e+05
    4.0997995529e-04    1.0120000000e+05
    4.1998119559e-04    1.0120000000e+05
    4.2996284901e-04    1.0120000000e+05
    4.3992322753e-04    1.0120000000e+05
    4.4996349607e-04    1.0120000000e+05
    4.5998094720e-04    1.0120000000e+05
    4.6997403842e-04    1.0120000000e+05
    4.7994102351e-04    1.0120000000e+05
    4.8998655984e-04    1.0120000000e+05
    4.9989763647e-04    1.0120000000e+05
    5.0999358064e-04    1.0120000000e+05
    5.1995186368e-04    1.0120000000e+05
    5.2998750471e-04    1.0120000000e+05
    5.3999101510e-04    1.0120000000e+05
    5.4996070685e-04    1.0120000000e+05
    5.5989506654e-04    1.0120000000e+05
    5.6990538724e-04    1.0120000000e+05
    5.7999242563e-04    1.0120000000e+05
    5.8992783306e-04    1.0120000000e+05
    5.9993821196e-04    1.0120000000e+05
    6.0990807833e-04    1.0120000000e+05
    6.1995297438e-04    1.0120000000e+05
    6.2995578628e-04    1.0120000000e+05
    6.3991465140e-04    1.0120000000e+05
    6.4994778950e-04    1.0120000000e+05
    6.5993529279e-04    1.0120000000e+05
    6.6999712726e-04    1.0120000000e+05
    6.7988899536e-04    1.0120000000e+05
    6.8997684866e-04    1.0120000000e+05
    6.9989112671e-04    1.0120000000e+05
    7.0987798972e-04    1.0120000000e+05
    7.1993825259e-04    1.0120000000e+05
    7.2994577931e-04    1.0120000000e+05
    7.3989859084e-04    1.0120000000e+05
    7.4992398731e-04    1.0120000000e+05
    7.5989280595e-04    1.0120000000e+05
    7.6993409311e-04    1.0120000000e+05
    7.7991688158e-04    1.0120000000e+05
    7.8997202218e-04    1.0120000000e+05
    7.9996668501e-04    1.0120000000e+05
    8.0989883281e-04    1.0120000000e+05
    8.1990216859e-04    1.0120000000e+05
    8.2997750724e-04    1.0120000000e+05
    8.3998817718e-04    1.0120000000e+05
    8.4993208293e-04    1.0120000000e+05
    8.5994665278e-04    1.0120000000e+05
    8.6989230476e-04    1.0120000000e+05
    8.7990838801e-04    1.0120000000e+05
    8.8999571744e-04    1.0120000000e+05
    8.9986808598e-04    1.0120000000e+05
    9.0995390201e-04    1.0120000000e+05
    9.1996591073e-04    1.0120000000e+05
    9.2990184203e-04    1.0120000000e+05
    9.3990709865e-04    1.0120000000e+05
    9.4998249551e-04    1.0120000000e+05
    9.5997913741e-04    1.0120000000e+05
    9.6989469603e-04    1.0120000000e+05
    9.7987859044e-04    1.0120000000e+05
    9.8993163556e-04    1.0120000000e+05
    9.9990074523e-04    1.0120000000e+05
    1.0099385399e-03    1.0120000000e+05
    1.0198896052e-03    1.0120000000e+05
    1.0299086571e-03    1.0120000000e+05
    1.0399963940e-03    1.0120000000e+05
    1.0499944910e-03    1.0120000000e+05
    1.0599002708e-03    1.0120000000e+05
    1.0698727565e-03    1.0120000000e+05
    1.0799125303e-03    1.0120000000e+05
    1.0898568435e-03    1.0120000000e+05
    1.0998677462e-03    1.0120000000e+05
    1.1099458206e-03    1.0120000000e+05
    1.1199251749e-03    1.0120000000e+05
    1.1299707694e-03    1.0120000000e+05
    1.1399145005e-03    1.0120000000e+05
    1.1499237735e-03    1.0120000000e+05
    1.1599994032e-03    1.0120000000e+05
    1.1699693277e-03    1.0120000000e+05
    1.1798312189e-03    1.0120000000e+05
    1.1899314122e-03    1.0120000000e+05
    1.1999225244e-03    1.0120000000e+05
    1.2099784799e-03    1.0120000000e+05
    1.2199219782e-03    1.0120000000e+05
    1.2299293885e-03    1.0120000000e+05
    1.2398210820e-03    1.0120000000e+05
    1.2499571312e-03    1.0120000000e+05
    1.2599762995e-03    1.0120000000e+05
    1.2698755600e-03    1.0120000000e+05
    1.2798374519e-03    1.0120000000e+05
    1.2898623245e-03    1.0120000000e+05
    1.2999511091e-03    1.0120000000e+05
    1.3099155622e-03    1.0120000000e+05
    1.3199428795e-03    1.0120000000e+05
    1.3298424892e-03    1.0120000000e+05
    1.3399958843e-03    1.0120000000e+05
    1.3498272747e-03    1.0120000000e+05
    1.3599138474e-03    1.0120000000e+05
    1.3698679395e-03    1.0120000000e+05
    1.3798839645e-03    1.0120000000e+05
    1.3899626210e-03    1.0120000000e+05
    1.3999047223e-03    1.0120000000e+05
    1.4099080581e-03    1.0120000000e+05
    1.4199735597e-03    1.0120000000e+05
    1.4298984315e-03    1.0120000000e+05
    1.4398840722e-03    1.0120000000e+05
    1.4499310637e-03    1.0120000000e+05
    1.4598332345e-03    1.0120000000e+05
    1.4697955921e-03    1.0120000000e+05
    1.4798188349e-03    1.0120000000e+05
    1.4899037778e-03    1.0120000000e+05
    1.4998386614e-03    1.0120000000e+05
    1.5098341973e-03    1.0120000000e+05
    1.5198903857e-03    1.0120000000e+05
    1.5297925565e-03    1.0120000000e+05
    1.5399715630e-03    1.0120000000e+05
    1.5499949222e-03    1.0120000000e+05
    1.5598596074e-03    1.0120000000e+05
    1.5697834315e-03    1.0120000000e+05
    1.5799895627e-03    1.0120000000e+05
    1.5898111742e-03    1.0120000000e+05
    1.5999164898e-03    1.0120000000e+05
    1.6098564956e-03    1.0120000000e+05
    1.6198570374e-03    1.0120000000e+05
    1.6299176496e-03    1.0120000000e+05
    1.6398089938e-03    1.0120000000e+05
    1.6499911435e-03    1.0120000000e+05
    1.6597699141e-03    1.0120000000e+05
    1.6698404215e-03    1.0120000000e+05
    1.6799715813e-03    1.0120000000e+05
    1.6899271868e-03    1.0120000000e+05
    1.6999427462e-03    1.0120000000e+05
    1.7097783275e-03    1.0120000000e+05
    1.7199139111e-03    1.0120000000e+05
    1.7298678868e-03    1.0120000000e+05
    1.7398827476e-03    1.0120000000e+05
    1.7499583773e-03    1.0120000000e+05
    1.7598459963e-03    1.0120000000e+05
    1.7697939184e-03    1.0120000000e+05
    1.7798003973e-03    1.0120000000e+05
    1.7898682272e-03    1.0120000000e+05
    1.7999965930e-03    1.0120000000e+05
    1.8099312438e-03    1.0120000000e+05
    1.8199260812e-03    1.0120000000e+05
    1.8299809890e-03    1.0120000000e+05
    1.8398368265e-03    1.0120000000e+05
    1.8497513374e-03    1.0120000000e+05
    1.8599884352e-03    1.0120000000e+05
    1.8697590567e-03    1.0120000000e+05
    1.8798540113e-03    1.0120000000e+05
    1.8897427944e-03    1.0120000000e+05
    1.8999602180e-03    1.0120000000e+05
    1.9099696074e-03    1.0120000000e+05
    1.9197670044e-03    1.0120000000e+05
    1.9298968837e-03    1.0120000000e+05
    1.9398131408e-03    1.0120000000e+05
    1.9497891190e-03    1.0120000000e+05
    1.9598254003e-03    1.0120000000e+05
    1.9699230324e-03    1.0120000000e+05
    1.9797999412e-03    1.0120000000e+05
    1.9897364546e-03    1.0120000000e+05
    1.9997330382e-03    1.0120000000e+05
    2.0097906236e-03    1.0120000000e+05
    2.0199101418e-03    1.0120000000e+05
    2.0298007876e-03    1.0120000000e+05
    2.0397515036e-03    1.0120000000e+05
    2.0497627556e-03    1.0120000000e+05
    2.0598354749e-03    1.0120000000e+05
    2.0699710585e-03    1.0120000000e+05
    2.0798686892e-03    1.0120000000e+05
    2.0898270886e-03    1.0120000000e+05
    2.0998464897e-03    1.0120000000e+05
    2.1099280566e-03    1.0120000000e+05
    2.1197644528e-03    1.0120000000e+05
    2.1299710497e-03    1.0120000000e+05
    2.1399301477e-03    1.0120000000e+05
    2.1499511786e-03    1.0120000000e+05
    2.1597184241e-03    1.0120000000e+05
    2.1698635537e-03    1.0120000000e+05
    2.1797528025e-03    1.0120000000e+05
    2.1897035185e-03    1.0120000000e+05
    2.1997164004e-03    1.0120000000e+05
    2.2097921465e-03    1.0120000000e+05
    2.2199321538e-03    1.0120000000e+05
    2.2298067342e-03    1.0120000000e+05
    2.2397430148e-03    1.0120000000e+05
    2.2497419268e-03    1.0120000000e+05
    2.2598044015e-03    1.0120000000e+05
    2.2699311376e-03    1.0120000000e+05
    2.2797826678e-03    1.0120000000e+05
    2.2896961309e-03    1.0120000000e+05
    2.2996726912e-03    1.0120000000e+05
    2.3097130470e-03    1.0120000000e+05
    2.3198181298e-03    1.0120000000e+05
    2.3299893364e-03    1.0120000000e+05
    2.3398732301e-03    1.0120000000e+05
    2.3498204537e-03    1.0120000000e+05
    2.3598319385e-03    1.0120000000e+05
    2.3699086159e-03    1.0120000000e+05
    2.3796884343e-03    1.0120000000e+05
    2.3898964282e-03    1.0120000000e+05
    2.3998047691e-03    1.0120000000e+05
    2.4097776040e-03    1.0120000000e+05
    2.4198163301e-03    1.0120000000e+05
    2.4299216457e-03    1.0120000000e+05
    2.4397165980e-03    1.0120000000e+05
    2.4499560241e-03    1.0120000000e+05
    2.4598822929e-03    1.0120000000e+05
    2.4698746856e-03    1.0120000000e+05
    2.4799339008e-03    1.0120000000e+05
    2.4896706454e-03    1.0120000000e+05
    2.4998649023e-03    1.0120000000e+05
    2.5097334292e-03    1.0120000000e+05
    2.5196680799e-03    1.0120000000e+05
    2.5296704844e-03    1.0120000000e+05
    2.5397411082e-03    1.0120000000e+05
    2.5498813484e-03    1.0120000000e+05
    2.5596825872e-03    1.0120000000e+05
    2.5699632242e-03    1.0120000000e+05
    2.5799013674e-03    1.0120000000e+05
    2.5899086613e-03    1.0120000000e+05
    2.5999855716e-03    1.0120000000e+05
    2.6097097434e-03    1.0120000000e+05
    2.6199275162e-03    1.0120000000e+05
    2.6297890581e-03    1.0120000000e+05
    2.6397176553e-03    1.0120000000e+05
    2.6497005019e-03    1.0120000000e+05
    2.6597252581e-03    1.0120000000e+05
    2.6697837748e-03    1.0120000000e+05
    2.6798737235e-03    1.0120000000e+05
    2.6899825316e-03    1.0120000000e+05
    2.6996829547e-03    1.0120000000e+05
    2.7098278515e-03    1.0120000000e+05
    2.7195580769e-03    1.0120000000e+05
    2.7297686320e-03    1.0120000000e+05
    2.7399412356e-03    1.0120000000e+05
    2.7497063857e-03    1.0120000000e+05
    2.7599097230e-03    1.0120000000e+05
    2.7696769685e-03    1.0120000000e+05
    2.7798777446e-03    1.0120000000e+05
    2.7896631509e-03    1.0120000000e+05
    2.7998504229e-03    1.0120000000e+05
    2.8095832095e-03    1.0120000000e+05
    2.8197779320e-03    1.0120000000e+05
    2.8299689293e-03    1.0120000000e+05
    2.8397331480e-03    1.0120000000e+05
    2.8499036562e-03    1.0120000000e+05
    2.8596599586e-03    1.0120000000e+05
    2.8698204551e-03    1.0120000000e+05
    2.8795541730e-03    1.0120000000e+05
    2.8897523880e-03    1.0120000000e+05
    2.8999203350e-03    1.0120000000e+05
    2.9096126091e-03    1.0120000000e+05
    2.9198185075e-03    1.0120000000e+05
    2.9295957647e-03    1.0120000000e+05
    2.9398163315e-03    1.0120000000e+05
    2.9499605298e-03    1.0120000000e+05
    2.9596583918e-03    1.0120000000e+05
    2.9697946738e-03    1.0120000000e+05
    2.9795593582e-03    1.0120000000e+05
    2.9897396453e-03    1.0120000000e+05
    2.9999699909e-03    1.0120000000e+05
    3.0097719282e-03    1.0120000000e+05
    3.0195659492e-03    1.0120000000e+05
    3.0298263300e-03    1.0120000000e+05
    3.0396715738e-03    1.0120000000e+05
    3.0499650165e-03    1.0120000000e+05
    3.0598286539e-03    1.0120000000e+05
    3.0697043985e-03    1.0120000000e+05
    3.0796017963e-03    1.0120000000e+05
    3.0899385456e-03    1.0120000000e+05
    3.0998487491e-03    1.0120000000e+05
    3.1097589526e-03    1.0120000000e+05
    3.1196789350e-03    1.0120000000e+05
    3.1296049710e-03    1.0120000000e+05
    3.1399554573e-03    1.0120000000e+05
    3.1498575117e-03    1.0120000000e+05
    3.1597521156e-03    1.0120000000e+05
    3.1696332153e-03    1.0120000000e+05
    3.1799301505e-03    1.0120000000e+05
    3.1897637527e-03    1.0120000000e+05
    3.1995703466e-03    1.0120000000e+05
    3.2097899821e-03    1.0120000000e+05
    3.2199763227e-03    1.0120000000e+05
    3.2296762802e-03    1.0120000000e+05
    3.2397673931e-03    1.0120000000e+05
    3.2498002984e-03    1.0120000000e+05
    3.2597745303e-03    1.0120000000e+05
    3.2696917187e-03    1.0120000000e+05
    3.2799793407e-03    1.0120000000e+05
    3.2897812780e-03    1.0120000000e+05
    3.2999499235e-03    1.0120000000e+05
    3.3096389379e-03    1.0120000000e+05
    3.3196914010e-03    1.0120000000e+05
    3.3296854235e-03    1.0120000000e+05
    3.3396219369e-03    1.0120000000e+05
    3.3499118872e-03    1.0120000000e+05
    3.3597322181e-03    1.0120000000e+05
    3.3699027263e-03    1.0120000000e+05
    3.3796099015e-03    1.0120000000e+05
    3.3896632958e-03    1.0120000000e+05
    3.3996580169e-03    1.0120000000e+05
    3.4099908080e-03    1.0120000000e+05
    3.4198674839e-03    1.0120000000e+05
    3.4296871163e-03    1.0120000000e+05
    3.4398399293e-03    1.0120000000e+05
    3.4499319736e-03    1.0120000000e+05
    3.4599644132e-03    1.0120000000e+05
    3.4699372482e-03    1.0120000000e+05
    3.4798514098e-03    1.0120000000e+05
    3.4897071309e-03    1.0120000000e+05
    3.4998808987e-03    1.0120000000e+05
    3.5099929664e-03    1.0120000000e+05
    3.5196726676e-03    1.0120000000e+05
    3.5296648275e-03    1.0120000000e+05
    3.5399633925e-03    1.0120000000e+05
    3.5498333164e-03    1.0120000000e+05
    3.5596438684e-03    1.0120000000e+05
    3.5697557032e-03    1.0120000000e+05
    3.5798049066e-03    1.0120000000e+05
    3.5897914786e-03    1.0120000000e+05
    3.5997163504e-03    1.0120000000e+05
    3.6099308636e-03    1.0120000000e+05
    3.6197311711e-03    1.0120000000e+05
    3.6298171617e-03    1.0120000000e+05
    3.6398388911e-03    1.0120000000e+05
    3.6497963592e-03    1.0120000000e+05
    3.6596900318e-03    1.0120000000e+05
    3.6698582117e-03    1.0120000000e+05
    3.6799588706e-03    1.0120000000e+05
    3.6899924744e-03    1.0120000000e+05
    3.6999592558e-03    1.0120000000e+05
    3.7098596804e-03    1.0120000000e+05
    3.7196942139e-03    1.0120000000e+05
    3.7297874223e-03    1.0120000000e+05
    3.7398107816e-03    1.0120000000e+05
    3.7497647572e-03    1.0120000000e+05
    3.7599669304e-03    1.0120000000e+05
    3.7697805092e-03    1.0120000000e+05
    3.7798383273e-03    1.0120000000e+05
    3.7898235023e-03    1.0120000000e+05
    3.7997355685e-03    1.0120000000e+05
    3.8098816294e-03    1.0120000000e+05
    3.8199508563e-03    1.0120000000e+05
    3.8299432490e-03    1.0120000000e+05
    3.8398592733e-03    1.0120000000e+05
    3.8499957882e-03    1.0120000000e+05
    3.8597569801e-03    1.0120000000e+05
    3.8697342388e-03    1.0120000000e+05
    3.8799203467e-03    1.0120000000e+05
    3.8897339255e-03    1.0120000000e+05
    3.8997519296e-03    1.0120000000e+05
    3.9099669084e-03    1.0120000000e+05
    3.9198114537e-03    1.0120000000e+05
    3.9298478514e-03    1.0120000000e+05
    3.9397939108e-03    1.0120000000e+05
    3.9499215782e-03    1.0120000000e+05
    3.9599537849e-03    1.0120000000e+05
    3.9698895998e-03    1.0120000000e+05
    3.9799935184e-03    1.0120000000e+05
    3.9899954572e-03    1.0120000000e+05
    3.9998944849e-03    1.0120000000e+05
    4.0099476464e-03    1.0120000000e+05
    4.0198918432e-03    1.0120000000e+05
    4.0299771354e-03    1.0120000000e+05
    4.0399464779e-03    1.0120000000e+05
    4.0497994050e-03    1.0120000000e+05
    4.0597761981e-03    1.0120000000e+05
    4.0698675439e-03    1.0120000000e+05
    4.0798271075e-03    1.0120000000e+05
    4.0898853913e-03    1.0120000000e+05
    4.0998025797e-03    1.0120000000e+05
    4.1098026559e-03    1.0120000000e+05
    4.1198725812e-03    1.0120000000e+05
    4.1297818534e-03    1.0120000000e+05
    4.1399560869e-03    1.0120000000e+05
    4.1499487124e-03    1.0120000000e+05
    4.1599622928e-03    1.0120000000e+05
    4.1699805297e-03    1.0120000000e+05
    4.1799847968e-03    1.0120000000e+05
    4.1899564676e-03    1.0120000000e+05
    4.1998736560e-03    1.0120000000e+05
    4.2098960839e-03    1.0120000000e+05
    4.2199799791e-03    1.0120000000e+05
    4.2299055494e-03    1.0120000000e+05
    4.2399647646e-03    1.0120000000e+05
    4.2499131523e-03    1.0120000000e+05
    4.2599667795e-03    1.0120000000e+05
    4.2699649930e-03    1.0120000000e+05
    4.2799436487e-03    1.0120000000e+05
    4.2899204418e-03    1.0120000000e+05
    4.2999214493e-03    1.0120000000e+05
    4.3099224567e-03    1.0120000000e+05
    4.3198694475e-03    1.0120000000e+05
    4.3299556710e-03    1.0120000000e+05
    4.3398980051e-03    1.0120000000e+05
    4.3499502353e-03    1.0120000000e+05
    4.3599433266e-03    1.0120000000e+05
    4.3699266389e-03    1.0120000000e+05
    4.3799038976e-03    1.0120000000e+05
    4.3899132870e-03    1.0120000000e+05
    4.3998723850e-03    1.0120000000e+05
    4.4098375365e-03    1.0120000000e+05
    4.4198818505e-03    1.0120000000e+05
    4.4298893772e-03    1.0120000000e+05
    4.4399993494e-03    1.0120000000e+05
    4.4498709030e-03    1.0120000000e+05
    4.4598197564e-03    1.0120000000e+05
    4.4698654674e-03    1.0120000000e+05
    4.4799903408e-03    1.0120000000e+05
    4.4899992645e-03    1.0120000000e+05
    4.4999159873e-03    1.0120000000e+05
    4.5098867267e-03    1.0120000000e+05
    4.5199305750e-03    1.0120000000e+05
    4.5298421755e-03    1.0120000000e+05
    4.5398124494e-03    1.0120000000e+05
    4.5498399995e-03    1.0120000000e+05
    4.5599290170e-03    1.0120000000e+05
    4.5698676258e-03    1.0120000000e+05
    4.5798746869e-03    1.0120000000e+05
    4.5899096876e-03    1.0120000000e+05
    4.5998133719e-03    1.0120000000e+05
    4.6099596657e-03    1.0120000000e+05
    4.6199429780e-03    1.0120000000e+05
    4.6299779788e-03    1.0120000000e+05
    4.6398509294e-03    1.0120000000e+05
    4.6499879099e-03    1.0120000000e+05
    4.6599288471e-03    1.0120000000e+05
    4.6699410304e-03    1.0120000000e+05
    4.6799569391e-03    1.0120000000e+05
    4.6898601577e-03    1.0120000000e+05
    4.6999496408e-03    1.0120000000e+05
    4.7099208459e-03    1.0120000000e+05
    4.7198878601e-03    1.0120000000e+05
    4.7299126163e-03    1.0120000000e+05
    4.7399671748e-03    1.0120000000e+05
    4.7498289496e-03    1.0120000000e+05
    4.7599836253e-03    1.0120000000e+05
    4.7698924318e-03    1.0120000000e+05
    4.7799237072e-03    1.0120000000e+05
    4.7898897901e-03    1.0120000000e+05
    4.7999653034e-03    1.0120000000e+05
    4.8098200932e-03    1.0120000000e+05
    4.8199202865e-03    1.0120000000e+05
    4.8298737966e-03    1.0120000000e+05
    4.8398105428e-03    1.0120000000e+05
    4.8498273827e-03    1.0120000000e+05
    4.8598484136e-03    1.0120000000e+05
    4.8699136823e-03    1.0120000000e+05
    4.8797982745e-03    1.0120000000e+05
    4.8899226822e-03    1.0120000000e+05
    4.8998766579e-03    1.0120000000e+05
    4.9098380841e-03    1.0120000000e+05
    4.9198553897e-03    1.0120000000e+05
    4.9298796803e-03    1.0120000000e+05
    4.9399426207e-03    1.0120000000e+05
    4.9498151056e-03    1.0120000000e+05
    4.9599306658e-03    1.0120000000e+05
    4.9698497169e-03    1.0120000000e+05
    4.9798050895e-03    1.0120000000e+05
    4.9899937585e-03    1.0120000000e+05
    4.9999929033e-03    1.0120000000e+05
    5.0097885542e-03    1.0120000000e+05
    5.0198379904e-03    1.0120000000e+05
    5.0298953429e-03    1.0120000000e+05
    5.0399932079e-03    1.0120000000e+05
    5.0498782657e-03    1.0120000000e+05
    5.0597800873e-03    1.0120000000e+05
    5.0699398853e-03    1.0120000000e+05
    5.0798859447e-03    1.0120000000e+05
    5.0898501649e-03    1.0120000000e+05
    5.0998344086e-03    1.0120000000e+05
    5.1098442636e-03    1.0120000000e+05
    5.1198629662e-03    1.0120000000e+05
    5.1298984326e-03    1.0120000000e+05
    5.1399623044e-03    1.0120000000e+05
    5.1497998647e-03    1.0120000000e+05
    5.1598851569e-03    1.0120000000e+05
    5.1699974574e-03    1.0120000000e+05
    5.1798801869e-03    1.0120000000e+05
    5.1897815429e-03    1.0120000000e+05
    5.1999329589e-03    1.0120000000e+05
    5.2098631859e-03    1.0120000000e+05
    5.2198022604e-03    1.0120000000e+05
    5.2299881354e-03    1.0120000000e+05
    5.2399598062e-03    1.0120000000e+05
    5.2499328740e-03    1.0120000000e+05
    5.2599161863e-03    1.0120000000e+05
    5.2699195221e-03    1.0120000000e+05
    5.2799228579e-03    1.0120000000e+05
    5.2899299189e-03    1.0120000000e+05
    5.2999528125e-03    1.0120000000e+05
    5.3099798970e-03    1.0120000000e+05
    5.3197764792e-03    1.0120000000e+05
    5.3298124112e-03    1.0120000000e+05
    5.3398511373e-03    1.0120000000e+05
    5.3498903289e-03    1.0120000000e+05
    5.3599304520e-03    1.0120000000e+05
    5.3699705750e-03    1.0120000000e+05
    5.3797774017e-03    1.0120000000e+05
    5.3898184560e-03    1.0120000000e+05
    5.3998595104e-03    1.0120000000e+05
    5.4099010304e-03    1.0120000000e+05
    5.4199430160e-03    1.0120000000e+05
    5.4299845360e-03    1.0120000000e+05
    5.4397927597e-03    1.0120000000e+05
    5.4498342797e-03    1.0120000000e+05
    5.4598757997e-03    1.0120000000e+05
    5.4699168541e-03    1.0120000000e+05
    5.4799579084e-03    1.0120000000e+05
    5.4899980314e-03    1.0120000000e+05
    5.4998048581e-03    1.0120000000e+05
    5.5098445155e-03    1.0120000000e+05
    5.5198832415e-03    1.0120000000e+05
    5.5299219675e-03    1.0120000000e+05
    5.5399602279e-03    1.0120000000e+05
    5.5499980226e-03    1.0120000000e+05
    5.5598011240e-03    1.0120000000e+05
    5.5698370561e-03    1.0120000000e+05
    5.5798715912e-03    1.0120000000e+05
    5.5899065919e-03    1.0120000000e+05
    5.5999392644e-03    1.0120000000e+05
    5.6099696085e-03    1.0120000000e+05
    5.6197703816e-03    1.0120000000e+05
    5.6298039854e-03    1.0120000000e+05
    5.6398320012e-03    1.0120000000e+05
    5.6498716585e-03    1.0120000000e+05
    5.6599183008e-03    1.0120000000e+05
    5.6699556299e-03    1.0120000000e+05
    5.6797727011e-03    1.0120000000e+05
    5.6898402981e-03    1.0120000000e+05
    5.6998981163e-03    1.0120000000e+05
    5.7099615224e-03    1.0120000000e+05
    5.7198149152e-03    1.0120000000e+05
    5.7298983447e-03    1.0120000000e+05
    5.7399771176e-03    1.0120000000e+05
    5.7498435490e-03    1.0120000000e+05
    5.7599553838e-03    1.0120000000e+05
    5.7698176242e-03    1.0120000000e+05
    5.7799322531e-03    1.0120000000e+05
    5.7898326777e-03    1.0120000000e+05
    5.7999542914e-03    1.0120000000e+05
    5.8098467998e-03    1.0120000000e+05
    5.8197649196e-03    1.0120000000e+05
    5.8299168013e-03    1.0120000000e+05
    5.8398260735e-03    1.0120000000e+05
    5.8499933220e-03    1.0120000000e+05
    5.8599356562e-03    1.0120000000e+05
    5.8698714711e-03    1.0120000000e+05
    5.8798156679e-03    1.0120000000e+05
    5.8897756971e-03    1.0120000000e+05
    5.8999774046e-03    1.0120000000e+05
    5.9099420905e-03    1.0120000000e+05
    5.9199174866e-03    1.0120000000e+05
    5.9299021959e-03    1.0120000000e+05
    5.9398906305e-03    1.0120000000e+05
    5.9498869814e-03    1.0120000000e+05
    5.9598898515e-03    1.0120000000e+05
    5.9698983096e-03    1.0120000000e+05
    5.9799142182e-03    1.0120000000e+05
    5.9899385087e-03    1.0120000000e+05
    5.9999651276e-03    1.0120000000e+05
    6.0099978000e-03    1.0120000000e+05
    6.0198013671e-03    1.0120000000e+05
    6.0298498720e-03    1.0120000000e+05
    6.0399025679e-03    1.0120000000e+05
    6.0499594547e-03    1.0120000000e+05
    6.0597895645e-03    1.0120000000e+05
    6.0698604211e-03    1.0120000000e+05
    6.0799350031e-03    1.0120000000e+05
    6.0897753574e-03    1.0120000000e+05
    6.0998620465e-03    1.0120000000e+05
    6.1099571176e-03    1.0120000000e+05
    6.1198137701e-03    1.0120000000e+05
    6.1299181543e-03    1.0120000000e+05
    6.1397887766e-03    1.0120000000e+05
    6.1499089934e-03    1.0120000000e+05
    6.1597884633e-03    1.0120000000e+05
    6.1699147336e-03    1.0120000000e+05
    6.1798044480e-03    1.0120000000e+05
    6.1899442226e-03    1.0120000000e+05
    6.1998451129e-03    1.0120000000e+05
    6.2099886127e-03    1.0120000000e+05
    6.2199016102e-03    1.0120000000e+05
    6.2298174016e-03    1.0120000000e+05
    6.2399851158e-03    1.0120000000e+05
    6.2499078922e-03    1.0120000000e+05
    6.2598381191e-03    1.0120000000e+05
    6.2697753310e-03    1.0120000000e+05
    6.2799574807e-03    1.0120000000e+05
    6.2899012119e-03    1.0120000000e+05
    6.2998454086e-03    1.0120000000e+05
    6.3098021783e-03    1.0120000000e+05
    6.3197598793e-03    1.0120000000e+05
    6.3299671747e-03    1.0120000000e+05
    6.3399313949e-03    1.0120000000e+05
    6.3499030657e-03    1.0120000000e+05
    6.3598812558e-03    1.0120000000e+05
    6.3698594458e-03    1.0120000000e+05
    6.3798450865e-03    1.0120000000e+05
    6.3898270018e-03    1.0120000000e+05
    6.3998256810e-03    1.0120000000e+05
    6.4098159783e-03    1.0120000000e+05
    6.4198188484e-03    1.0120000000e+05
    6.4298212528e-03    1.0120000000e+05
    6.4398301765e-03    1.0120000000e+05
    6.4498456195e-03    1.0120000000e+05
    6.4598531462e-03    1.0120000000e+05
    6.4698779024e-03    1.0120000000e+05
    6.4798980020e-03    1.0120000000e+05
    6.4899311401e-03    1.0120000000e+05
    6.4999600872e-03    1.0120000000e+05
    6.5099890344e-03    1.0120000000e+05
    6.5197860822e-03    1.0120000000e+05
    6.5298215486e-03    1.0120000000e+05
    6.5398733132e-03    1.0120000000e+05
    6.5499162301e-03    1.0120000000e+05
    6.5599712543e-03    1.0120000000e+05
    6.5697790124e-03    1.0120000000e+05
    6.5798368305e-03    1.0120000000e+05
    6.5898965113e-03    1.0120000000e+05
    6.5999603830e-03    1.0120000000e+05
    6.6097909585e-03    1.0120000000e+05
    6.6198599525e-03    1.0120000000e+05
    6.6299331374e-03    1.0120000000e+05
    6.6397571936e-03    1.0120000000e+05
    6.6498396918e-03    1.0120000000e+05
    6.6599342972e-03    1.0120000000e+05
    6.6697816364e-03    1.0120000000e+05
    6.6798715852e-03    1.0120000000e+05
    6.6899545491e-03    1.0120000000e+05
    6.6997981630e-03    1.0120000000e+05
    6.7098969594e-03    1.0120000000e+05
    6.7197559401e-03    1.0120000000e+05
    6.7298598588e-03    1.0120000000e+05
    6.7399614491e-03    1.0120000000e+05
    6.7498148419e-03    1.0120000000e+05
    6.7599127069e-03    1.0120000000e+05
    6.7697623745e-03    1.0120000000e+05
    6.7798634991e-03    1.0120000000e+05
    6.7899753340e-03    1.0120000000e+05
    6.7998412997e-03    1.0120000000e+05
    6.8099512719e-03    1.0120000000e+05
    6.8198125809e-03    1.0120000000e+05
    6.8299192935e-03    1.0120000000e+05
    6.8397787400e-03    1.0120000000e+05
    6.8498840556e-03    1.0120000000e+05
    6.8599898368e-03    1.0120000000e+05
    6.8698497489e-03    1.0120000000e+05
    6.8799592555e-03    1.0120000000e+05
    6.8898252212e-03    1.0120000000e+05
    6.8999403156e-03    1.0120000000e+05
    6.9098086096e-03    1.0120000000e+05
    6.9199223071e-03    1.0120000000e+05
    6.9297882728e-03    1.0120000000e+05
    6.9398996420e-03    1.0120000000e+05
    6.9497642107e-03    1.0120000000e+05
    6.9598751143e-03    1.0120000000e+05
    6.9699864835e-03    1.0120000000e+05
    6.9798510522e-03    1.0120000000e+05
    6.9899619557e-03    1.0120000000e+05
    6.9998260587e-03    1.0120000000e+05
    7.0099364966e-03    1.0120000000e+05
    7.0198001340e-03    1.0120000000e+05
    7.0299101062e-03    1.0120000000e+05
    7.0397737436e-03    1.0120000000e+05
    7.0498832501e-03    1.0120000000e+05
    7.0599922910e-03    1.0120000000e+05
    7.0698545314e-03    1.0120000000e+05
    7.0799631067e-03    1.0120000000e+05
    7.0898253471e-03    1.0120000000e+05
    7.0999334566e-03    1.0120000000e+05
    7.1097952314e-03    1.0120000000e+05
    7.1199028753e-03    1.0120000000e+05
    7.1297646500e-03    1.0120000000e+05
    7.1398736909e-03    1.0120000000e+05
    7.1499836631e-03    1.0120000000e+05
    7.1598482318e-03    1.0120000000e+05
    7.1699582040e-03    1.0120000000e+05
    7.1798209101e-03    1.0120000000e+05
    7.1899285540e-03    1.0120000000e+05
    7.1997889318e-03    1.0120000000e+05
    7.2098951787e-03    1.0120000000e+05
    7.2197546251e-03    1.0120000000e+05
    7.2298608720e-03    1.0120000000e+05
    7.2399689816e-03    1.0120000000e+05
    7.2498326190e-03    1.0120000000e+05
    7.2599444538e-03    1.0120000000e+05
    7.2698094882e-03    1.0120000000e+05
    7.2799208574e-03    1.0120000000e+05
    7.2897844948e-03    1.0120000000e+05
    7.2998940013e-03    1.0120000000e+05
    7.3097557761e-03    1.0120000000e+05
    7.3198634200e-03    1.0120000000e+05
    7.3299701326e-03    1.0120000000e+05
    7.3398323730e-03    1.0120000000e+05
    7.3499474674e-03    1.0120000000e+05
    7.3598166928e-03    1.0120000000e+05
    7.3699313216e-03    1.0120000000e+05
    7.3797977529e-03    1.0120000000e+05
    7.3899105191e-03    1.0120000000e+05
    7.3997760192e-03    1.0120000000e+05
    7.4098911136e-03    1.0120000000e+05
    7.4197635986e-03    1.0120000000e+05
    7.4298824184e-03    1.0120000000e+05
    7.4399993755e-03    1.0120000000e+05
    7.4498695321e-03    1.0120000000e+05
    7.4599855579e-03    1.0120000000e+05
    7.4698561803e-03    1.0120000000e+05
    7.4799777940e-03    1.0120000000e+05
    7.4898521416e-03    1.0120000000e+05
    7.4999723583e-03    1.0120000000e+05
    7.5098453090e-03    1.0120000000e+05
    7.5199641287e-03    1.0120000000e+05
    7.5298394077e-03    1.0120000000e+05
    7.5399642810e-03    1.0120000000e+05
    7.5498414226e-03    1.0120000000e+05
    7.5599644333e-03    1.0120000000e+05
    7.5698397122e-03    1.0120000000e+05
    7.5799636543e-03    1.0120000000e+05
    7.5898435898e-03    1.0120000000e+05
    7.5999693945e-03    1.0120000000e+05
    7.6098474674e-03    1.0120000000e+05
    7.6199718751e-03    1.0120000000e+05
    7.6298518106e-03    1.0120000000e+05
    7.6399804093e-03    1.0120000000e+05
    7.6498608105e-03    1.0120000000e+05
    7.6599880122e-03    1.0120000000e+05
    7.6698674820e-03    1.0120000000e+05
    7.6799965464e-03    1.0120000000e+05
    7.6898783445e-03    1.0120000000e+05
    7.6997596771e-03    1.0120000000e+05
    7.7098878101e-03    1.0120000000e+05
    7.7197700739e-03    1.0120000000e+05
    7.7298991382e-03    1.0120000000e+05
    7.7397809364e-03    1.0120000000e+05
    7.7499095351e-03    1.0120000000e+05
    7.7597913332e-03    1.0120000000e+05
    7.7699208632e-03    1.0120000000e+05
    7.7798026614e-03    1.0120000000e+05
    7.7899312600e-03    1.0120000000e+05
    7.7998130582e-03    1.0120000000e+05
    7.8099425882e-03    1.0120000000e+05
    7.8198239207e-03    1.0120000000e+05
    7.8299529850e-03    1.0120000000e+05
    7.8398343176e-03    1.0120000000e+05
    7.8499624506e-03    1.0120000000e+05
    7.8598437831e-03    1.0120000000e+05
    7.8699719161e-03    1.0120000000e+05
    7.8798532486e-03    1.0120000000e+05
    7.8899813816e-03    1.0120000000e+05
    7.8998617828e-03    1.0120000000e+05
    7.9099899158e-03    1.0120000000e+05
    7.9198703170e-03    1.0120000000e+05
    7.9299975187e-03    1.0120000000e+05
    7.9398769885e-03    1.0120000000e+05
    7.9497573897e-03    1.0120000000e+05
    7.9598836601e-03    1.0120000000e+05
    7.9697640613e-03    1.0120000000e+05
    7.9798903316e-03    1.0120000000e+05
    7.9897698015e-03    1.0120000000e+05
    7.9998970032e-03    1.0120000000e+05
    8.0097764730e-03    1.0120000000e+05
    8.0199046060e-03    1.0120000000e+05
    8.0297859386e-03    1.0120000000e+05
    8.0399159342e-03    1.0120000000e+05
    8.0498028547e-03    1.0120000000e+05
    8.0599375069e-03    1.0120000000e+05
    8.0698253587e-03    1.0120000000e+05
    8.0799590796e-03    1.0120000000e+05
    8.0898450688e-03    1.0120000000e+05
    8.0999806523e-03    1.0120000000e+05
    8.1098694354e-03    1.0120000000e+05
    8.1197610125e-03    1.0120000000e+05
    8.1299003214e-03    1.0120000000e+05
    8.1397937611e-03    1.0120000000e+05
    8.1499349326e-03    1.0120000000e+05
    8.1598283723e-03    1.0120000000e+05
    8.1699676812e-03    1.0120000000e+05
    8.1798601896e-03    1.0120000000e+05
    8.1899994984e-03    1.0120000000e+05
    8.1998920068e-03    1.0120000000e+05
    8.2097835839e-03    1.0120000000e+05
    8.2199219614e-03    1.0120000000e+05
    8.2298135385e-03    1.0120000000e+05
    8.2399528474e-03    1.0120000000e+05
    8.2498453557e-03    1.0120000000e+05
    8.2599837333e-03    1.0120000000e+05
    8.2698762417e-03    1.0120000000e+05
    8.2797696814e-03    1.0120000000e+05
    8.2899117842e-03    1.0120000000e+05
    8.2998080179e-03    1.0120000000e+05
    8.3099510521e-03    1.0120000000e+05
    8.3198510110e-03    1.0120000000e+05
    8.3297546953e-03    1.0120000000e+05
    8.3399098366e-03    1.0120000000e+05
    8.3498191088e-03    1.0120000000e+05
    8.3599844947e-03    1.0120000000e+05
    8.3699142560e-03    1.0120000000e+05
    8.3798542619e-03    1.0120000000e+05
    8.3897998556e-03    1.0120000000e+05
    8.3999950439e-03    1.0120000000e+05
    8.4099415690e-03    1.0120000000e+05
    8.4198871627e-03    1.0120000000e+05
    8.4298327565e-03    1.0120000000e+05
    8.4397774190e-03    1.0120000000e+05
    8.4499698132e-03    1.0120000000e+05
    8.4599144757e-03    1.0120000000e+05
    8.4698619321e-03    1.0120000000e+05
    8.4798093885e-03    1.0120000000e+05
    8.4897568449e-03    1.0120000000e+05
    8.4999529645e-03    1.0120000000e+05
    8.5098985583e-03    1.0120000000e+05
    8.5198450834e-03    1.0120000000e+05
    8.5297916085e-03    1.0120000000e+05
    8.5399867967e-03    1.0120000000e+05
    8.5499333218e-03    1.0120000000e+05
    8.5598798469e-03    1.0120000000e+05
    8.5698254406e-03    1.0120000000e+05
    8.5797710344e-03    1.0120000000e+05
    8.5899652913e-03    1.0120000000e+05
    8.5999108851e-03    1.0120000000e+05
    8.6098555475e-03    1.0120000000e+05
    8.6198011413e-03    1.0120000000e+05
    8.6299963295e-03    1.0120000000e+05
    8.6399409920e-03    1.0120000000e+05
    8.6498865858e-03    1.0120000000e+05
    8.6598349735e-03    1.0120000000e+05
    8.6697852239e-03    1.0120000000e+05
    8.6799832061e-03    1.0120000000e+05
    8.6899353191e-03    1.0120000000e+05
    8.6998920888e-03    1.0120000000e+05
    8.7098525837e-03    1.0120000000e+05
    8.7198177353e-03    1.0120000000e+05
    8.7297847494e-03    1.0120000000e+05
    8.7397564203e-03    1.0120000000e+05
    8.7499879301e-03    1.0120000000e+05
    8.7599763647e-03    1.0120000000e+05
    8.7699685246e-03    1.0120000000e+05
    8.7799606845e-03    1.0120000000e+05
    8.7899593636e-03    1.0120000000e+05
    8.7999710813e-03    1.0120000000e+05
    8.8099855930e-03    1.0120000000e+05
    8.8197514415e-03    1.0120000000e+05
    8.8297687471e-03    1.0120000000e+05
    8.8397972286e-03    1.0120000000e+05
    8.8498378173e-03    1.0120000000e+05
    8.8598765433e-03    1.0120000000e+05
    8.8699189946e-03    1.0120000000e+05
    8.8799642399e-03    1.0120000000e+05
    8.8897729293e-03    1.0120000000e+05
    8.8998386636e-03    1.0120000000e+05
    8.9099025354e-03    1.0120000000e+05
    8.9199738577e-03    1.0120000000e+05
    8.9297993109e-03    1.0120000000e+05
    8.9398873970e-03    1.0120000000e+05
    8.9499764144e-03    1.0120000000e+05
    8.9598186314e-03    1.0120000000e+05
    8.9699197561e-03    1.0120000000e+05
    8.9797787368e-03    1.0120000000e+05
    8.9898929000e-03    1.0120000000e+05
    8.9997528121e-03    1.0120000000e+05
    9.0098707005e-03    1.0120000000e+05
    9.0197483078e-03    1.0120000000e+05
    9.0298876166e-03    1.0120000000e+05
    9.0397745371e-03    1.0120000000e+05
    9.0499101207e-03    1.0120000000e+05
    9.0597942472e-03    1.0120000000e+05
    9.0699531138e-03    1.0120000000e+05
    9.0798614547e-03    1.0120000000e+05
    9.0897707269e-03    1.0120000000e+05
    9.0999351814e-03    1.0120000000e+05
    9.1098463163e-03    1.0120000000e+05
    9.1197695583e-03    1.0120000000e+05
    9.1299563646e-03    1.0120000000e+05
    9.1398879886e-03    1.0120000000e+05
    9.1498196125e-03    1.0120000000e+05
    9.1597596183e-03    1.0120000000e+05
    9.1699576005e-03    1.0120000000e+05
    9.1799097136e-03    1.0120000000e+05
    9.1898692772e-03    1.0120000000e+05
    9.1998241842e-03    1.0120000000e+05
    9.2097884044e-03    1.0120000000e+05
    9.2197572812e-03    1.0120000000e+05
    9.2299850658e-03    1.0120000000e+05
    9.2399669811e-03    1.0120000000e+05
    9.2499498278e-03    1.0120000000e+05
    9.2599289492e-03    1.0120000000e+05
    9.2699192464e-03    1.0120000000e+05
    9.2799169943e-03    1.0120000000e+05
    9.2899184674e-03    1.0120000000e+05
    9.2999301851e-03    1.0120000000e+05
    9.3099372461e-03    1.0120000000e+05
    9.3199433759e-03    1.0120000000e+05
    9.3299606815e-03    1.0120000000e+05
    9.3399863690e-03    1.0120000000e+05
    9.3497550115e-03    1.0120000000e+05
    9.3597890809e-03    1.0120000000e+05
    9.3698147684e-03    1.0120000000e+05
    9.3798423186e-03    1.0120000000e+05
    9.3898847699e-03    1.0120000000e+05
    9.3999356031e-03    1.0120000000e+05
    9.4099864364e-03    1.0120000000e+05
    9.4197848812e-03    1.0120000000e+05
    9.4298347831e-03    1.0120000000e+05
    9.4398884103e-03    1.0120000000e+05
    9.4499569386e-03    1.0120000000e+05
    9.4597702846e-03    1.0120000000e+05
    9.4698425382e-03    1.0120000000e+05
    9.4799185172e-03    1.0120000000e+05
    9.4899898395e-03    1.0120000000e+05
    9.4998069108e-03    1.0120000000e+05
    9.5098996535e-03    1.0120000000e+05
    9.5199933276e-03    1.0120000000e+05
    9.5298299566e-03    1.0120000000e+05
    9.5399301499e-03    1.0120000000e+05
    9.5497639850e-03    1.0120000000e+05
    9.5598623157e-03    1.0120000000e+05
    9.5699764788e-03    1.0120000000e+05
    9.5798298717e-03    1.0120000000e+05
    9.5899477601e-03    1.0120000000e+05
    9.5998123288e-03    1.0120000000e+05
    9.6099302173e-03    1.0120000000e+05
    9.6197929233e-03    1.0120000000e+05
    9.6299247816e-03    1.0120000000e+05
    9.6397995949e-03    1.0120000000e+05
    9.6499416977e-03    1.0120000000e+05
    9.6598286182e-03    1.0120000000e+05
    9.6699697897e-03    1.0120000000e+05
    9.6798567101e-03    1.0120000000e+05
    9.6897492185e-03    1.0120000000e+05
    9.6999006346e-03    1.0120000000e+05
    9.7097996622e-03    1.0120000000e+05
    9.7199669108e-03    1.0120000000e+05
    9.7298733890e-03    1.0120000000e+05
    9.7397845238e-03    1.0120000000e+05
    9.7499601543e-03    1.0120000000e+05
    9.7598759457e-03    1.0120000000e+05
    9.7697973251e-03    1.0120000000e+05
    9.7799804062e-03    1.0120000000e+05
    9.7899017856e-03    1.0120000000e+05
    9.7998296842e-03    1.0120000000e+05
    9.8097613081e-03    1.0120000000e+05
    9.8199564964e-03    1.0120000000e+05
    9.8298965022e-03    1.0120000000e+05
    9.8398420960e-03    1.0120000000e+05
    9.8497914150e-03    1.0120000000e+05
    9.8597425967e-03    1.0120000000e+05
    9.8699564114e-03    1.0120000000e+05
    9.8799113184e-03    1.0120000000e+05
    9.8898671567e-03    1.0120000000e+05
    9.8998248577e-03    1.0120000000e+05
    9.9097862840e-03    1.0120000000e+05
    9.9197532982e-03    1.0120000000e+05
    9.9299866706e-03    1.0120000000e+05
    9.9399602041e-03    1.0120000000e+05
    9.9499365315e-03    1.0120000000e+05
    9.9599175155e-03    1.0120000000e+05
    9.9699003622e-03    1.0120000000e+05
    9.9798822775e-03    1.0120000000e+05
    9.9898697808e-03    1.0120000000e+05
    9.9998619407e-03    1.0120000000e+05
    1.0009856895e-02    1.0120000000e+05
    1.0019855574e-02    1.0120000000e+05
    1.0029857047e-02    1.0120000000e+05
    1.0039862245e-02    1.0120000000e+05
    1.0049869306e-02    1.0120000000e+05
    1.0059876367e-02    1.0120000000e+05
    1.0069887154e-02    1.0120000000e+05
    1.0079904459e-02    1.0120000000e+05
    1.0089924559e-02    1.0120000000e+05
    1.0099946521e-02    1.0120000000e+05
    1.0109972209e-02    1.0120000000e+05
    1.0119999759e-02    1.0120000000e+05
    1.0129766539e-02    1.0120000000e+05
    1.0139798746e-02    1.0120000000e+05
    1.0149834678e-02    1.0120000000e+05
    1.0159877129e-02    1.0120000000e+05
    1.0169920512e-02    1.0120000000e+05
    1.0179963894e-02    1.0120000000e+05
    1.0189747438e-02    1.0120000000e+05
    1.0199799202e-02    1.0120000000e+05
    1.0209854692e-02    1.0120000000e+05
    1.0219912976e-02    1.0120000000e+05
    1.0229973122e-02    1.0120000000e+05
    1.0239771567e-02    1.0120000000e+05
    1.0249836370e-02    1.0120000000e+05
    1.0259899311e-02    1.0120000000e+05
    1.0269967839e-02    1.0120000000e+05
    1.0279777460e-02    1.0120000000e+05
    1.0289854370e-02    1.0120000000e+05
    1.0299934074e-02    1.0120000000e+05
    1.0309751146e-02    1.0120000000e+05
    1.0319837369e-02    1.0120000000e+05
    1.0329926386e-02    1.0120000000e+05
    1.0339749977e-02    1.0120000000e+05
    1.0349842720e-02    1.0120000000e+05
    1.0359940119e-02    1.0120000000e+05
    1.0369773023e-02    1.0120000000e+05
    1.0379871354e-02    1.0120000000e+05
    1.0389974341e-02    1.0120000000e+05
    1.0399815626e-02    1.0120000000e+05
    1.0409926064e-02    1.0120000000e+05
    1.0419771075e-02    1.0120000000e+05
    1.0429883376e-02    1.0120000000e+05
    1.0439734906e-02    1.0120000000e+05
    1.0449854657e-02    1.0120000000e+05
    1.0459974408e-02    1.0120000000e+05
    1.0469833389e-02    1.0120000000e+05
    1.0479964316e-02    1.0120000000e+05
    1.0489828885e-02    1.0120000000e+05
    1.0499960743e-02    1.0120000000e+05
    1.0509828106e-02    1.0120000000e+05
    1.0519967414e-02    1.0120000000e+05
    1.0529843159e-02    1.0120000000e+05
    1.0539986193e-02    1.0120000000e+05
    1.0549865663e-02    1.0120000000e+05
    1.0559750721e-02    1.0120000000e+05
    1.0569903068e-02    1.0120000000e+05
    1.0579788126e-02    1.0120000000e+05
    1.0589943267e-02    1.0120000000e+05
    1.0599836707e-02    1.0120000000e+05
    1.0609734803e-02    1.0120000000e+05
    1.0619899258e-02    1.0120000000e+05
    1.0629798286e-02    1.0120000000e+05
    1.0639971122e-02    1.0120000000e+05
    1.0649877600e-02    1.0120000000e+05
    1.0659784079e-02    1.0120000000e+05
    1.0669960640e-02    1.0120000000e+05
    1.0679876432e-02    1.0120000000e+05
    1.0689795949e-02    1.0120000000e+05
    1.0699981824e-02    1.0120000000e+05
    1.0709901340e-02    1.0120000000e+05
    1.0719828308e-02    1.0120000000e+05
    1.0729758069e-02    1.0120000000e+05
    1.0739954188e-02    1.0120000000e+05
    1.0749884881e-02    1.0120000000e+05
    1.0759823024e-02    1.0120000000e+05
    1.0769763030e-02    1.0120000000e+05
    1.0779972188e-02    1.0120000000e+05
    1.0789914057e-02    1.0120000000e+05
    1.0799861513e-02    1.0120000000e+05
    1.0809814557e-02    1.0120000000e+05
    1.0819764808e-02    1.0120000000e+05
    1.0829984210e-02    1.0120000000e+05
    1.0839944705e-02    1.0120000000e+05
    1.0849908926e-02    1.0120000000e+05
    1.0859870352e-02    1.0120000000e+05
    1.0869835503e-02    1.0120000000e+05
    1.0879806243e-02    1.0120000000e+05
    1.0889781639e-02    1.0120000000e+05
    1.0899757035e-02    1.0120000000e+05
    1.0909733362e-02    1.0120000000e+05
    1.0919985361e-02    1.0120000000e+05
    1.0929974727e-02    1.0120000000e+05
    1.0939960368e-02    1.0120000000e+05
    1.0949946940e-02    1.0120000000e+05
    1.0959941894e-02    1.0120000000e+05
    1.0969941504e-02    1.0120000000e+05
    1.0979937389e-02    1.0120000000e+05
    1.0989933275e-02    1.0120000000e+05
    1.0999937542e-02    1.0120000000e+05
    1.1009952053e-02    1.0120000000e+05
    1.1019968428e-02    1.0120000000e+05
    1.1029991321e-02    1.0120000000e+05
    1.1039749719e-02    1.0120000000e+05
    1.1049780063e-02    1.0120000000e+05
    1.1059810407e-02    1.0120000000e+05
    1.1069838889e-02    1.0120000000e+05
    1.1079866439e-02    1.0120000000e+05
    1.1089891195e-02    1.0120000000e+05
    1.1099916883e-02    1.0120000000e+05
    1.1109944433e-02    1.0120000000e+05
    1.1119974777e-02    1.0120000000e+05
    1.1129734106e-02    1.0120000000e+05
    1.1139765382e-02    1.0120000000e+05
    1.1149794795e-02    1.0120000000e+05
    1.1159824207e-02    1.0120000000e+05
    1.1169853620e-02    1.0120000000e+05
    1.1179882102e-02    1.0120000000e+05
    1.1189911515e-02    1.0120000000e+05
    1.1199941859e-02    1.0120000000e+05
    1.1209973134e-02    1.0120000000e+05
    1.1219733395e-02    1.0120000000e+05
    1.1229760014e-02    1.0120000000e+05
    1.1239786632e-02    1.0120000000e+05
    1.1249819770e-02    1.0120000000e+05
    1.1259853840e-02    1.0120000000e+05
    1.1269889772e-02    1.0120000000e+05
    1.1279931292e-02    1.0120000000e+05
    1.1289974675e-02    1.0120000000e+05
    1.1299747974e-02    1.0120000000e+05
    1.1309791356e-02    1.0120000000e+05
    1.1319834739e-02    1.0120000000e+05
    1.1329876259e-02    1.0120000000e+05
    1.1339915916e-02    1.0120000000e+05
    1.1349956505e-02    1.0120000000e+05
    1.1359995231e-02    1.0120000000e+05
    1.1369763874e-02    1.0120000000e+05
    1.1379805394e-02    1.0120000000e+05
    1.1389847845e-02    1.0120000000e+05
    1.1399890296e-02    1.0120000000e+05
    1.1409930885e-02    1.0120000000e+05
    1.1419970542e-02    1.0120000000e+05
    1.1429738253e-02    1.0120000000e+05
    1.1439776979e-02    1.0120000000e+05
    1.1449815705e-02    1.0120000000e+05
    1.1459854431e-02    1.0120000000e+05
    1.1469893157e-02    1.0120000000e+05
    1.1479932815e-02    1.0120000000e+05
    1.1489970610e-02    1.0120000000e+05
    1.1499736458e-02    1.0120000000e+05
    1.1509772390e-02    1.0120000000e+05
    1.1519808322e-02    1.0120000000e+05
    1.1529844254e-02    1.0120000000e+05
    1.1539880186e-02    1.0120000000e+05
    1.1549916118e-02    1.0120000000e+05
    1.1559951119e-02    1.0120000000e+05
    1.1569985189e-02    1.0120000000e+05
    1.1579747312e-02    1.0120000000e+05
    1.1589779519e-02    1.0120000000e+05
    1.1599812657e-02    1.0120000000e+05
    1.1609844863e-02    1.0120000000e+05
    1.1619877070e-02    1.0120000000e+05
    1.1629909277e-02    1.0120000000e+05
    1.1639940552e-02    1.0120000000e+05
    1.1649969965e-02    1.0120000000e+05
    1.1659999378e-02    1.0120000000e+05
    1.1669757776e-02    1.0120000000e+05
    1.1679786257e-02    1.0120000000e+05
    1.1689815670e-02    1.0120000000e+05
    1.1699845083e-02    1.0120000000e+05
    1.1709872633e-02    1.0120000000e+05
    1.1719900183e-02    1.0120000000e+05
    1.1729927734e-02    1.0120000000e+05
    1.1739953421e-02    1.0120000000e+05
    1.1749980971e-02    1.0120000000e+05
    1.1759739369e-02    1.0120000000e+05
    1.1769768782e-02    1.0120000000e+05
    1.1779800057e-02    1.0120000000e+05
    1.1789829470e-02    1.0120000000e+05
    1.1799857020e-02    1.0120000000e+05
    1.1809883639e-02    1.0120000000e+05
    1.1819909327e-02    1.0120000000e+05
    1.1829934083e-02    1.0120000000e+05
    1.1839959770e-02    1.0120000000e+05
    1.1849985458e-02    1.0120000000e+05
    1.1859744787e-02    1.0120000000e+05
    1.1869777925e-02    1.0120000000e+05
    1.1879812926e-02    1.0120000000e+05
    1.1889846064e-02    1.0120000000e+05
    1.1899877340e-02    1.0120000000e+05
    1.1909907684e-02    1.0120000000e+05
    1.1919937097e-02    1.0120000000e+05
    1.1929965578e-02    1.0120000000e+05
    1.1939994060e-02    1.0120000000e+05
    1.1949750595e-02    1.0120000000e+05
    1.1959777214e-02    1.0120000000e+05
    1.1969803832e-02    1.0120000000e+05
    1.1979830451e-02    1.0120000000e+05
    1.1989857070e-02    1.0120000000e+05
    1.1999882758e-02    1.0120000000e+05
    1.2009908445e-02    1.0120000000e+05
    1.2019934133e-02    1.0120000000e+05
    1.2029959820e-02    1.0120000000e+05
    1.2039984576e-02    1.0120000000e+05
    1.2049737386e-02    1.0120000000e+05
    1.2059761211e-02    1.0120000000e+05
    1.2069784105e-02    1.0120000000e+05
    1.2079806067e-02    1.0120000000e+05
    1.2089827098e-02    1.0120000000e+05
    1.2099849060e-02    1.0120000000e+05
    1.2109869160e-02    1.0120000000e+05
    1.2119889259e-02    1.0120000000e+05
    1.2129910290e-02    1.0120000000e+05
    1.2139929458e-02    1.0120000000e+05
    1.2149949558e-02    1.0120000000e+05
    1.2159968726e-02    1.0120000000e+05
    1.2169987895e-02    1.0120000000e+05
    1.2179736048e-02    1.0120000000e+05
    1.2189756148e-02    1.0120000000e+05
    1.2199776247e-02    1.0120000000e+05
    1.2209798209e-02    1.0120000000e+05
    1.2219821103e-02    1.0120000000e+05
    1.2229848653e-02    1.0120000000e+05
    1.2239880860e-02    1.0120000000e+05
    1.2249910273e-02    1.0120000000e+05
    1.2259944342e-02    1.0120000000e+05
    1.2269993313e-02    1.0120000000e+05
    1.2279798277e-02    1.0120000000e+05
    1.2289900333e-02    1.0120000000e+05
    1.2299750000e-02    1.0120000000e+05
    1.2309886515e-02    1.0120000000e+05
    1.2319760397e-02    1.0120000000e+05
    1.2329911813e-02    1.0120000000e+05
    1.2339793146e-02    1.0120000000e+05
    1.2349954806e-02    1.0120000000e+05
    1.2359864078e-02    1.0120000000e+05
    1.2369806878e-02    1.0120000000e+05
    1.2379793450e-02    1.0120000000e+05
    1.2389825657e-02    1.0120000000e+05
    1.2399905361e-02    1.0120000000e+05
    1.2409745716e-02    1.0120000000e+05
    1.2419908307e-02    1.0120000000e+05
    1.2429820374e-02    1.0120000000e+05
    1.2439760379e-02    1.0120000000e+05
    1.2449726462e-02    1.0120000000e+05
    1.2459719554e-02    1.0120000000e+05
    1.2469742447e-02    1.0120000000e+05
    1.2479794212e-02    1.0120000000e+05
    1.2489872053e-02    1.0120000000e+05
    1.2499975041e-02    1.0120000000e+05
    1.2509806082e-02    1.0120000000e+05
    1.2519940734e-02    1.0120000000e+05
    1.2529795989e-02    1.0120000000e+05
    1.2539953925e-02    1.0120000000e+05
    1.2549838983e-02    1.0120000000e+05
    1.2559748255e-02    1.0120000000e+05
    1.2569978833e-02    1.0120000000e+05
    1.2579955161e-02    1.0120000000e+05
    1.2589970604e-02    1.0120000000e+05
    1.2599720620e-02    1.0120000000e+05
    1.2609782629e-02    1.0120000000e+05
    1.2619862333e-02    1.0120000000e+05
    1.2629945762e-02    1.0120000000e+05
    1.2639735825e-02    1.0120000000e+05
    1.2649823911e-02    1.0120000000e+05
    1.2659915723e-02    1.0120000000e+05
    1.2669721618e-02    1.0120000000e+05
    1.2679846957e-02    1.0120000000e+05
    1.2689998373e-02    1.0120000000e+05
    1.2699881569e-02    1.0120000000e+05
    1.2709791772e-02    1.0120000000e+05
    1.2719724327e-02    1.0120000000e+05
    1.2729973532e-02    1.0120000000e+05
    1.2739929371e-02    1.0120000000e+05
    1.2749888003e-02    1.0120000000e+05
    1.2759851292e-02    1.0120000000e+05
    1.2769828551e-02    1.0120000000e+05
    1.2779849581e-02    1.0120000000e+05
    1.2789951637e-02    1.0120000000e+05
    1.2799866498e-02    1.0120000000e+05
    1.2809936889e-02    1.0120000000e+05
    1.2819861062e-02    1.0120000000e+05
    1.2829964980e-02    1.0120000000e+05
    1.2839919887e-02    1.0120000000e+05
    1.2849709019e-02    1.0120000000e+05
    1.2859658338e-02    1.0120000000e+05
    1.2869766913e-02    1.0120000000e+05
    1.2879676186e-02    1.0120000000e+05
    1.2889727950e-02    1.0120000000e+05
    1.2899921276e-02    1.0120000000e+05
    1.2909881771e-02    1.0120000000e+05
    1.2919970788e-02    1.0120000000e+05
    1.2929805554e-02    1.0120000000e+05
    1.2939755805e-02    1.0120000000e+05
    1.2949821539e-02    1.0120000000e+05
    1.2959607877e-02    1.0120000000e+05
    1.2969897129e-02    1.0120000000e+05
    1.2979897670e-02    1.0120000000e+05
    1.2989595532e-02    1.0120000000e+05
    1.2999800034e-02    1.0120000000e+05
    1.3009694405e-02    1.0120000000e+05
    1.3019681908e-02    1.0120000000e+05
    1.3029767200e-02    1.0120000000e+05
    1.3039948419e-02    1.0120000000e+05
    1.3049792498e-02    1.0120000000e+05
    1.3059717603e-02    1.0120000000e+05
    1.3069721870e-02    1.0120000000e+05
    1.3079806231e-02    1.0120000000e+05
    1.3089970686e-02    1.0120000000e+05
    1.3099768199e-02    1.0120000000e+05
    1.3109634630e-02    1.0120000000e+05
    1.3119561598e-02    1.0120000000e+05
    1.3129993342e-02    1.0120000000e+05
    1.3139553368e-02    1.0120000000e+05
    1.3149604201e-02    1.0120000000e+05
    1.3159691356e-02    1.0120000000e+05
    1.3169804588e-02    1.0120000000e+05
    1.3179954141e-02    1.0120000000e+05
    1.3189686462e-02    1.0120000000e+05
    1.3199922629e-02    1.0120000000e+05
    1.3209717348e-02    1.0120000000e+05
    1.3219548389e-02    1.0120000000e+05
    1.3229895383e-02    1.0120000000e+05
    1.3239814900e-02    1.0120000000e+05
    1.3249759562e-02    1.0120000000e+05
    1.3259743340e-02    1.0120000000e+05
    1.3269780204e-02    1.0120000000e+05
    1.3279826380e-02    1.0120000000e+05
    1.3289912604e-02    1.0120000000e+05
    1.3299558312e-02    1.0120000000e+05
    1.3309728354e-02    1.0120000000e+05
    1.3319911435e-02    1.0120000000e+05
    1.3329663314e-02    1.0120000000e+05
    1.3339933939e-02    1.0120000000e+05
    1.3349737041e-02    1.0120000000e+05
    1.3359591365e-02    1.0120000000e+05
    1.3369954191e-02    1.0120000000e+05
    1.3379853219e-02    1.0120000000e+05
    1.3389847241e-02    1.0120000000e+05
    1.3399761170e-02    1.0120000000e+05
    1.3409748673e-02    1.0120000000e+05
    1.3419806026e-02    1.0120000000e+05
    1.3429847546e-02    1.0120000000e+05
    1.3439939357e-02    1.0120000000e+05
    1.3449544087e-02    1.0120000000e+05
    1.3459634967e-02    1.0120000000e+05
    1.3469843194e-02    1.0120000000e+05
    1.3479607180e-02    1.0120000000e+05
    1.3489792123e-02    1.0120000000e+05
    1.3499521650e-02    1.0120000000e+05
    1.3509837911e-02    1.0120000000e+05
    1.3519688509e-02    1.0120000000e+05
    1.3529999182e-02    1.0120000000e+05
    1.3539851643e-02    1.0120000000e+05
    1.3549779542e-02    1.0120000000e+05
    1.3559698127e-02    1.0120000000e+05
    1.3569686562e-02    1.0120000000e+05
    1.3579616323e-02    1.0120000000e+05
    1.3589551672e-02    1.0120000000e+05
    1.3599532656e-02    1.0120000000e+05
    1.3609508984e-02    1.0120000000e+05
    1.3619588688e-02    1.0120000000e+05
    1.3629658148e-02    1.0120000000e+05
    1.3639756478e-02    1.0120000000e+05
    1.3649874367e-02    1.0120000000e+05
    1.3659998775e-02    1.0120000000e+05
    1.3669646345e-02    1.0120000000e+05
    1.3679757714e-02    1.0120000000e+05
    1.3689925894e-02    1.0120000000e+05
    1.3699605130e-02    1.0120000000e+05
    1.3709828258e-02    1.0120000000e+05
    1.3719547540e-02    1.0120000000e+05
    1.3729809783e-02    1.0120000000e+05
    1.3739578426e-02    1.0120000000e+05
    1.3749841601e-02    1.0120000000e+05
    1.3759685680e-02    1.0120000000e+05
    1.3769960031e-02    1.0120000000e+05
    1.3779780827e-02    1.0120000000e+05
    1.3789513148e-02    1.0120000000e+05
    1.3799723238e-02    1.0120000000e+05
    1.3809809461e-02    1.0120000000e+05
    1.3819740154e-02    1.0120000000e+05
    1.3829981908e-02    1.0120000000e+05
    1.3839925639e-02    1.0120000000e+05
    1.3849580660e-02    1.0120000000e+05
    1.3859882951e-02    1.0120000000e+05
    1.3869859278e-02    1.0120000000e+05
    1.3879952021e-02    1.0120000000e+05
    1.3889709488e-02    1.0120000000e+05
    1.3899946585e-02    1.0120000000e+05
    1.3909808360e-02    1.0120000000e+05
    1.3919676654e-02    1.0120000000e+05
    1.3929870911e-02    1.0120000000e+05
    1.3939966448e-02    1.0120000000e+05
    1.3949921355e-02    1.0120000000e+05
    1.3959695585e-02    1.0120000000e+05
    1.3969823718e-02    1.0120000000e+05
    1.3979876414e-02    1.0120000000e+05
    1.3989990577e-02    1.0120000000e+05
    1.3999976218e-02    1.0120000000e+05
    1.4009908773e-02    1.0120000000e+05
    1.4019830152e-02    1.0120000000e+05
    1.4029905200e-02    1.0120000000e+05
    1.4039951377e-02    1.0120000000e+05
    1.4049896970e-02    1.0120000000e+05
    1.4059914276e-02    1.0120000000e+05
    1.4069911093e-02    1.0120000000e+05
    1.4079838060e-02    1.0120000000e+05
    1.4089867473e-02    1.0120000000e+05
    1.4099823311e-02    1.0120000000e+05
    1.4109949581e-02    1.0120000000e+05
    1.4119985513e-02    1.0120000000e+05
    1.4129890129e-02    1.0120000000e+05
    1.4139859937e-02    1.0120000000e+05
    1.4149876311e-02    1.0120000000e+05
    1.4159880579e-02    1.0120000000e+05
    1.4169848524e-02    1.0120000000e+05
    1.4179938473e-02    1.0120000000e+05
    1.4189933427e-02    1.0120000000e+05
    1.4199785888e-02    1.0120000000e+05
    1.4209932648e-02    1.0120000000e+05
    1.4219917357e-02    1.0120000000e+05
    1.4229971915e-02    1.0120000000e+05
    1.4239856042e-02    1.0120000000e+05
    1.4249784872e-02    1.0120000000e+05
    1.4259974472e-02    1.0120000000e+05
    1.4269988984e-02    1.0120000000e+05
    1.4279814437e-02    1.0120000000e+05
    1.4289892279e-02    1.0120000000e+05
    1.4299781062e-02    1.0120000000e+05
    1.4309924096e-02    1.0120000000e+05
    1.4319875278e-02    1.0120000000e+05
    1.4329836704e-02    1.0120000000e+05
    1.4339848422e-02    1.0120000000e+05
    1.4349849895e-02    1.0120000000e+05
    1.4359910972e-02    1.0120000000e+05
    1.4369960874e-02    1.0120000000e+05
    1.4379840344e-02    1.0120000000e+05
    1.4389923774e-02    1.0120000000e+05
    1.4399841428e-02    1.0120000000e+05
    1.4409981668e-02    1.0120000000e+05
    1.4419919811e-02    1.0120000000e+05
    1.4429883100e-02    1.0120000000e+05
    1.4439869672e-02    1.0120000000e+05
    1.4449871145e-02    1.0120000000e+05
    1.4459893107e-02    1.0120000000e+05
    1.4469947666e-02    1.0120000000e+05
    1.4479764737e-02    1.0120000000e+05
    1.4489852823e-02    1.0120000000e+05
    1.4499963261e-02    1.0120000000e+05
    1.4509842731e-02    1.0120000000e+05
    1.4519978315e-02    1.0120000000e+05
    1.4529908076e-02    1.0120000000e+05
    1.4539838769e-02    1.0120000000e+05
    1.4549780637e-02    1.0120000000e+05
    1.4559994452e-02    1.0120000000e+05
    1.4569968916e-02    1.0120000000e+05
    1.4579956420e-02    1.0120000000e+05
    1.4589978382e-02    1.0120000000e+05
    1.4599997550e-02    1.0120000000e+05
    1.4609782957e-02    1.0120000000e+05
    1.4619842172e-02    1.0120000000e+05
    1.4629908837e-02    1.0120000000e+05
    1.4639965259e-02    1.0120000000e+05
    1.4649818651e-02    1.0120000000e+05
    1.4659924433e-02    1.0120000000e+05
    1.4669780619e-02    1.0120000000e+05
    1.4679897577e-02    1.0120000000e+05
    1.4689798467e-02    1.0120000000e+05
    1.4699930325e-02    1.0120000000e+05
    1.4709838666e-02    1.0120000000e+05
    1.4719774947e-02    1.0120000000e+05
    1.4729938470e-02    1.0120000000e+05
    1.4739877544e-02    1.0120000000e+05
    1.4749847353e-02    1.0120000000e+05
    1.4759808779e-02    1.0120000000e+05
    1.4769766480e-02    1.0120000000e+05
    1.4779759571e-02    1.0120000000e+05
    1.4789756387e-02    1.0120000000e+05
    1.4799986035e-02    1.0120000000e+05
    1.4809989370e-02    1.0120000000e+05
    1.4819773845e-02    1.0120000000e+05
    1.4829802327e-02    1.0120000000e+05
    1.4839842916e-02    1.0120000000e+05
    1.4849899337e-02    1.0120000000e+05
    1.4859953895e-02    1.0120000000e+05
    1.4869778417e-02    1.0120000000e+05
    1.4879861847e-02    1.0120000000e+05
    1.4889946207e-02    1.0120000000e+05
    1.4899780974e-02    1.0120000000e+05
    1.4909886755e-02    1.0120000000e+05
    1.4919758774e-02    1.0120000000e+05
    1.4929871075e-02    1.0120000000e+05
    1.4939992689e-02    1.0120000000e+05
    1.4949885197e-02    1.0120000000e+05
    1.4959781431e-02    1.0120000000e+05
    1.4969930053e-02    1.0120000000e+05
    1.4979838394e-02    1.0120000000e+05
    1.4989754185e-02    1.0120000000e+05
    1.4999929816e-02    1.0120000000e+05
    1.5009867027e-02    1.0120000000e+05
    1.5019805171e-02    1.0120000000e+05
    1.5029991046e-02    1.0120000000e+05
    1.5039948747e-02    1.0120000000e+05
    1.5049913898e-02    1.0120000000e+05
    1.5059879981e-02    1.0120000000e+05
    1.5069846064e-02    1.0120000000e+05
    1.5079826117e-02    1.0120000000e+05
    1.5089818276e-02    1.0120000000e+05
    1.5099809505e-02    1.0120000000e+05
    1.5109807253e-02    1.0120000000e+05
    1.5119808726e-02    1.0120000000e+05
    1.5129822306e-02    1.0120000000e+05
    1.5139845200e-02    1.0120000000e+05
    1.5149863437e-02    1.0120000000e+05
    1.5159890056e-02    1.0120000000e+05
    1.5169927850e-02    1.0120000000e+05
    1.5179973096e-02    1.0120000000e+05
    1.5189769678e-02    1.0120000000e+05
    1.5199813060e-02    1.0120000000e+05
    1.5209870413e-02    1.0120000000e+05
    1.5219938941e-02    1.0120000000e+05
    1.5229756944e-02    1.0120000000e+05
    1.5239827335e-02    1.0120000000e+05
    1.5249898657e-02    1.0120000000e+05
    1.5259984881e-02    1.0120000000e+05
    1.5269823372e-02    1.0120000000e+05
    1.5279917046e-02    1.0120000000e+05
    1.5289759263e-02    1.0120000000e+05
    1.5299856663e-02    1.0120000000e+05
    1.5309968032e-02    1.0120000000e+05
    1.5319824219e-02    1.0120000000e+05
    1.5329936519e-02    1.0120000000e+05
    1.5339805745e-02    1.0120000000e+05
    1.5349930152e-02    1.0120000000e+05
    1.5359811485e-02    1.0120000000e+05
    1.5369939618e-02    1.0120000000e+05
    1.5379818156e-02    1.0120000000e+05
    1.5389964916e-02    1.0120000000e+05
    1.5399857424e-02    1.0120000000e+05
    1.5409757383e-02    1.0120000000e+05
    1.5419906005e-02    1.0120000000e+05
    1.5429803170e-02    1.0120000000e+05
    1.5439966694e-02    1.0120000000e+05
    1.5449875034e-02    1.0120000000e+05
    1.5459787101e-02    1.0120000000e+05
    1.5469950624e-02    1.0120000000e+05
    1.5479865484e-02    1.0120000000e+05
    1.5489788726e-02    1.0120000000e+05
    1.5499967150e-02    1.0120000000e+05
    1.5509891324e-02    1.0120000000e+05
    1.5519813634e-02    1.0120000000e+05
    1.5529991128e-02    1.0120000000e+05
    1.5539919958e-02    1.0120000000e+05
    1.5549846925e-02    1.0120000000e+05
    1.5559778549e-02    1.0120000000e+05
    1.5569970943e-02    1.0120000000e+05
    1.5579910018e-02    1.0120000000e+05
    1.5589850955e-02    1.0120000000e+05
    1.5599792823e-02    1.0120000000e+05
    1.5609988943e-02    1.0120000000e+05
    1.5619929880e-02    1.0120000000e+05
    1.5629870817e-02    1.0120000000e+05
    1.5639811754e-02    1.0120000000e+05
    1.5649750829e-02    1.0120000000e+05
    1.5659946948e-02    1.0120000000e+05
    1.5669886023e-02    1.0120000000e+05
    1.5679826960e-02    1.0120000000e+05
    1.5689767897e-02    1.0120000000e+05
    1.5699962154e-02    1.0120000000e+05
    1.5709904954e-02    1.0120000000e+05
    1.5719847754e-02    1.0120000000e+05
    1.5729790553e-02    1.0120000000e+05
    1.5739990398e-02    1.0120000000e+05
    1.5749936923e-02    1.0120000000e+05
    1.5759881586e-02    1.0120000000e+05
    1.5769828111e-02    1.0120000000e+05
    1.5779772773e-02    1.0120000000e+05
    1.5789974481e-02    1.0120000000e+05
    1.5799921006e-02    1.0120000000e+05
    1.5809865668e-02    1.0120000000e+05
    1.5819814056e-02    1.0120000000e+05
    1.5829760581e-02    1.0120000000e+05
    1.5839962289e-02    1.0120000000e+05
    1.5849910676e-02    1.0120000000e+05
    1.5859860927e-02    1.0120000000e+05
    1.5869809315e-02    1.0120000000e+05
    1.5879759565e-02    1.0120000000e+05
    1.5889966860e-02    1.0120000000e+05
    1.5899917111e-02    1.0120000000e+05
    1.5909869224e-02    1.0120000000e+05
    1.5919821337e-02    1.0120000000e+05
    1.5929773450e-02    1.0120000000e+05
    1.5939980745e-02    1.0120000000e+05
    1.5949934721e-02    1.0120000000e+05
    1.5959888697e-02    1.0120000000e+05
    1.5969840810e-02    1.0120000000e+05
    1.5979794785e-02    1.0120000000e+05
    1.5989748761e-02    1.0120000000e+05
    1.5999957919e-02    1.0120000000e+05
    1.6009911895e-02    1.0120000000e+05
    1.6019865870e-02    1.0120000000e+05
    1.6029819846e-02    1.0120000000e+05
    1.6039773822e-02    1.0120000000e+05
    1.6049984843e-02    1.0120000000e+05
    1.6059942544e-02    1.0120000000e+05
    1.6069903970e-02    1.0120000000e+05
    1.6079867259e-02    1.0120000000e+05
    1.6089836136e-02    1.0120000000e+05
    1.6099806875e-02    1.0120000000e+05
    1.6109775752e-02    1.0120000000e+05
    1.6119997948e-02    1.0120000000e+05
    1.6129964963e-02    1.0120000000e+05
    1.6139930114e-02    1.0120000000e+05
    1.6149895266e-02    1.0120000000e+05
    1.6159860417e-02    1.0120000000e+05
    1.6169827431e-02    1.0120000000e+05
    1.6179798171e-02    1.0120000000e+05
    1.6189770773e-02    1.0120000000e+05
    1.6199745238e-02    1.0120000000e+05
    1.6209973022e-02    1.0120000000e+05
    1.6219945624e-02    1.0120000000e+05
    1.6229918227e-02    1.0120000000e+05
    1.6239890829e-02    1.0120000000e+05
    1.6249863431e-02    1.0120000000e+05
    1.6259836033e-02    1.0120000000e+05
    1.6269808635e-02    1.0120000000e+05
    1.6279781237e-02    1.0120000000e+05
    1.6289753839e-02    1.0120000000e+05
    1.6299983487e-02    1.0120000000e+05
    1.6309957951e-02    1.0120000000e+05
    1.6319932416e-02    1.0120000000e+05
    1.6329906881e-02    1.0120000000e+05
    1.6339879483e-02    1.0120000000e+05
    1.6349853948e-02    1.0120000000e+05
    1.6359826550e-02    1.0120000000e+05
    1.6369801015e-02    1.0120000000e+05
    1.6379775479e-02    1.0120000000e+05
    1.6389749944e-02    1.0120000000e+05
    1.6399979591e-02    1.0120000000e+05
    1.6409954056e-02    1.0120000000e+05
    1.6419928521e-02    1.0120000000e+05
    1.6429902986e-02    1.0120000000e+05
    1.6439877450e-02    1.0120000000e+05
    1.6449851915e-02    1.0120000000e+05
    1.6459826380e-02    1.0120000000e+05
    1.6469800845e-02    1.0120000000e+05
    1.6479775310e-02    1.0120000000e+05
    1.6489751637e-02    1.0120000000e+05
    1.6499981284e-02    1.0120000000e+05
    1.6509955749e-02    1.0120000000e+05
    1.6519930214e-02    1.0120000000e+05
    1.6529906541e-02    1.0120000000e+05
    1.6539881006e-02    1.0120000000e+05
    1.6549855471e-02    1.0120000000e+05
    1.6559831798e-02    1.0120000000e+05
    1.6569806263e-02    1.0120000000e+05
    1.6579780728e-02    1.0120000000e+05
    1.6589755192e-02    1.0120000000e+05
    1.6599986702e-02    1.0120000000e+05
    1.6609963030e-02    1.0120000000e+05
    1.6619937494e-02    1.0120000000e+05
    1.6629913822e-02    1.0120000000e+05
    1.6639888287e-02    1.0120000000e+05
    1.6649862751e-02    1.0120000000e+05
    1.6659839079e-02    1.0120000000e+05
    1.6669815406e-02    1.0120000000e+05
    1.6679789871e-02    1.0120000000e+05
    1.6689766198e-02    1.0120000000e+05
    1.6699997708e-02    1.0120000000e+05
    1.6709972173e-02    1.0120000000e+05
    1.6719948500e-02    1.0120000000e+05
    1.6729924828e-02    1.0120000000e+05
    1.6739901155e-02    1.0120000000e+05
    1.6749875620e-02    1.0120000000e+05
    1.6759851947e-02    1.0120000000e+05
    1.6769828275e-02    1.0120000000e+05
    1.6779804602e-02    1.0120000000e+05
    1.6789779067e-02    1.0120000000e+05
    1.6799755394e-02    1.0120000000e+05
    1.6809988767e-02    1.0120000000e+05
    1.6819963232e-02    1.0120000000e+05
    1.6829939559e-02    1.0120000000e+05
    1.6839915887e-02    1.0120000000e+05
    1.6849892214e-02    1.0120000000e+05
    1.6859868541e-02    1.0120000000e+05
    1.6869844869e-02    1.0120000000e+05
    1.6879821196e-02    1.0120000000e+05
    1.6889797524e-02    1.0120000000e+05
    1.6899773851e-02    1.0120000000e+05
    1.6909750178e-02    1.0120000000e+05
    1.6919981688e-02    1.0120000000e+05
    1.6929958016e-02    1.0120000000e+05
    1.6939934343e-02    1.0120000000e+05
    1.6949910671e-02    1.0120000000e+05
    1.6959886998e-02    1.0120000000e+05
    1.6969863325e-02    1.0120000000e+05
    1.6979841515e-02    1.0120000000e+05
    1.6989817843e-02    1.0120000000e+05
    1.6999794170e-02    1.0120000000e+05
    1.7009770498e-02    1.0120000000e+05
    1.7019748688e-02    1.0120000000e+05
    1.7029980198e-02    1.0120000000e+05
    1.7039958388e-02    1.0120000000e+05
    1.7049934715e-02    1.0120000000e+05
    1.7059911042e-02    1.0120000000e+05
    1.7069889233e-02    1.0120000000e+05
    1.7079865560e-02    1.0120000000e+05
    1.7089843750e-02    1.0120000000e+05
    1.7099820077e-02    1.0120000000e+05
    1.7109798267e-02    1.0120000000e+05
    1.7119776458e-02    1.0120000000e+05
    1.7129752785e-02    1.0120000000e+05
    1.7139986157e-02    1.0120000000e+05
    1.7149964347e-02    1.0120000000e+05
    1.7159942538e-02    1.0120000000e+05
    1.7169920728e-02    1.0120000000e+05
    1.7179898918e-02    1.0120000000e+05
    1.7189877108e-02    1.0120000000e+05
    1.7199855298e-02    1.0120000000e+05
    1.7209833488e-02    1.0120000000e+05
    1.7219811678e-02    1.0120000000e+05
    1.7229791731e-02    1.0120000000e+05
    1.7239769921e-02    1.0120000000e+05
    1.7249748111e-02    1.0120000000e+05
    1.7259981483e-02    1.0120000000e+05
    1.7269961536e-02    1.0120000000e+05
    1.7279941589e-02    1.0120000000e+05
    1.7289921641e-02    1.0120000000e+05
    1.7299899831e-02    1.0120000000e+05
    1.7309879884e-02    1.0120000000e+05
    1.7319859937e-02    1.0120000000e+05
    1.7329839990e-02    1.0120000000e+05
    1.7339820042e-02    1.0120000000e+05
    1.7349800095e-02    1.0120000000e+05
    1.7359780148e-02    1.0120000000e+05
    1.7369760200e-02    1.0120000000e+05
    1.7379997298e-02    1.0120000000e+05
    1.7389977351e-02    1.0120000000e+05
    1.7399957404e-02    1.0120000000e+05
    1.7409939319e-02    1.0120000000e+05
    1.7419919372e-02    1.0120000000e+05
    1.7429901287e-02    1.0120000000e+05
    1.7439881340e-02    1.0120000000e+05
    1.7449863255e-02    1.0120000000e+05
    1.7459845170e-02    1.0120000000e+05
    1.7469827086e-02    1.0120000000e+05
    1.7479809001e-02    1.0120000000e+05
    1.7489790916e-02    1.0120000000e+05
    1.7499772832e-02    1.0120000000e+05
    1.7509754747e-02    1.0120000000e+05
    1.7519991845e-02    1.0120000000e+05
    1.7529973760e-02    1.0120000000e+05
    1.7539955676e-02    1.0120000000e+05
    1.7549939454e-02    1.0120000000e+05
    1.7559921369e-02    1.0120000000e+05
    1.7569905147e-02    1.0120000000e+05
    1.7579887062e-02    1.0120000000e+05
    1.7589870840e-02    1.0120000000e+05
    1.7599854618e-02    1.0120000000e+05
    1.7609838396e-02    1.0120000000e+05
    1.7619822174e-02    1.0120000000e+05
    1.7629804090e-02    1.0120000000e+05
    1.7639787868e-02    1.0120000000e+05
    1.7649771646e-02    1.0120000000e+05
    1.7659755424e-02    1.0120000000e+05
    1.7669996247e-02    1.0120000000e+05
    1.7679980025e-02    1.0120000000e+05
    1.7689965665e-02    1.0120000000e+05
    1.7699949443e-02    1.0120000000e+05
    1.7709933221e-02    1.0120000000e+05
    1.7719918862e-02    1.0120000000e+05
    1.7729902640e-02    1.0120000000e+05
    1.7739888281e-02    1.0120000000e+05
    1.7749873921e-02    1.0120000000e+05
    1.7759857699e-02    1.0120000000e+05
    1.7769843340e-02    1.0120000000e+05
    1.7779828981e-02    1.0120000000e+05
    1.7789814621e-02    1.0120000000e+05
    1.7799800262e-02    1.0120000000e+05
    1.7809785903e-02    1.0120000000e+05
    1.7819773406e-02    1.0120000000e+05
    1.7829759046e-02    1.0120000000e+05
    1.7839744687e-02    1.0120000000e+05
    1.7849987373e-02    1.0120000000e+05
    1.7859973013e-02    1.0120000000e+05
    1.7869960517e-02    1.0120000000e+05
    1.7879948020e-02    1.0120000000e+05
    1.7889933661e-02    1.0120000000e+05
    1.7899921164e-02    1.0120000000e+05
    1.7909908667e-02    1.0120000000e+05
    1.7919896170e-02    1.0120000000e+05
    1.7929883674e-02    1.0120000000e+05
    1.7939871177e-02    1.0120000000e+05
    1.7949858680e-02    1.0120000000e+05
    1.7959846184e-02    1.0120000000e+05
    1.7969833687e-02    1.0120000000e+05
    1.7979821190e-02    1.0120000000e+05
    1.7989810556e-02    1.0120000000e+05
    1.7999798059e-02    1.0120000000e+05
    1.8009787425e-02    1.0120000000e+05
    1.8019774929e-02    1.0120000000e+05
    1.8029764295e-02    1.0120000000e+05
    1.8039753661e-02    1.0120000000e+05
    1.8049998209e-02    1.0120000000e+05
    1.8059987575e-02    1.0120000000e+05
    1.8069976941e-02    1.0120000000e+05
    1.8079966307e-02    1.0120000000e+05
    1.8089955673e-02    1.0120000000e+05
    1.8099945039e-02    1.0120000000e+05
    1.8109934404e-02    1.0120000000e+05
    1.8119923770e-02    1.0120000000e+05
    1.8129914999e-02    1.0120000000e+05
    1.8139904365e-02    1.0120000000e+05
    1.8149893731e-02    1.0120000000e+05
    1.8159884959e-02    1.0120000000e+05
    1.8169874325e-02    1.0120000000e+05
    1.8179865554e-02    1.0120000000e+05
    1.8189856783e-02    1.0120000000e+05
    1.8199846148e-02    1.0120000000e+05
    1.8209837377e-02    1.0120000000e+05
    1.8219828606e-02    1.0120000000e+05
    1.8229819834e-02    1.0120000000e+05
    1.8239811063e-02    1.0120000000e+05
    1.8249802291e-02    1.0120000000e+05
    1.8259793520e-02    1.0120000000e+05
    1.8269784749e-02    1.0120000000e+05
    1.8279775977e-02    1.0120000000e+05
    1.8289767206e-02    1.0120000000e+05
    1.8299758434e-02    1.0120000000e+05
    1.8309751526e-02    1.0120000000e+05
    1.8319999799e-02    1.0120000000e+05
    1.8329991028e-02    1.0120000000e+05
    1.8339984119e-02    1.0120000000e+05
    1.8349975348e-02    1.0120000000e+05
    1.8359968439e-02    1.0120000000e+05
    1.8369959667e-02    1.0120000000e+05
    1.8379952759e-02    1.0120000000e+05
    1.8389945850e-02    1.0120000000e+05
    1.8399938941e-02    1.0120000000e+05
    1.8409930170e-02    1.0120000000e+05
    1.8419923261e-02    1.0120000000e+05
    1.8429916352e-02    1.0120000000e+05
    1.8439909443e-02    1.0120000000e+05
    1.8449902534e-02    1.0120000000e+05
    1.8459897488e-02    1.0120000000e+05
    1.8469890580e-02    1.0120000000e+05
    1.8479883671e-02    1.0120000000e+05
    1.8489876762e-02    1.0120000000e+05
    1.8499869853e-02    1.0120000000e+05
    1.8509864807e-02    1.0120000000e+05
    1.8519857898e-02    1.0120000000e+05
    1.8529852852e-02    1.0120000000e+05
    1.8539845943e-02    1.0120000000e+05
    1.8549840897e-02    1.0120000000e+05
    1.8559833989e-02    1.0120000000e+05
    1.8569828942e-02    1.0120000000e+05
    1.8579823896e-02    1.0120000000e+05
    1.8589816988e-02    1.0120000000e+05
    1.8599811941e-02    1.0120000000e+05
    1.8609806895e-02    1.0120000000e+05
    1.8619801849e-02    1.0120000000e+05
    1.8629796803e-02    1.0120000000e+05
    1.8639791757e-02    1.0120000000e+05
    1.8649786711e-02    1.0120000000e+05
    1.8659781665e-02    1.0120000000e+05
    1.8669776618e-02    1.0120000000e+05
    1.8679771572e-02    1.0120000000e+05
    1.8689766526e-02    1.0120000000e+05
    1.8699761480e-02    1.0120000000e+05
    1.8709758297e-02    1.0120000000e+05
    1.8719753250e-02    1.0120000000e+05
    1.8729748204e-02    1.0120000000e+05
    1.8739745021e-02    1.0120000000e+05
    1.8749997020e-02    1.0120000000e+05
    1.8759991974e-02    1.0120000000e+05
    1.8769988790e-02    1.0120000000e+05
    1.8779983744e-02    1.0120000000e+05
    1.8789980561e-02    1.0120000000e+05
    1.8799977377e-02    1.0120000000e+05
    1.8809972331e-02    1.0120000000e+05
    1.8819969147e-02    1.0120000000e+05
    1.8829965964e-02    1.0120000000e+05
    1.8839962780e-02    1.0120000000e+05
    1.8849957734e-02    1.0120000000e+05
    1.8859954551e-02    1.0120000000e+05
    1.8869951367e-02    1.0120000000e+05
    1.8879948184e-02    1.0120000000e+05
    1.8889945000e-02    1.0120000000e+05
    1.8899941817e-02    1.0120000000e+05
    1.8909938633e-02    1.0120000000e+05
    1.8919935450e-02    1.0120000000e+05
    1.8929932266e-02    1.0120000000e+05
    1.8939930946e-02    1.0120000000e+05
    1.8949927762e-02    1.0120000000e+05
    1.8959924579e-02    1.0120000000e+05
    1.8969921395e-02    1.0120000000e+05
    1.8979920074e-02    1.0120000000e+05
    1.8989916891e-02    1.0120000000e+05
    1.8999913707e-02    1.0120000000e+05
    1.9009912387e-02    1.0120000000e+05
    1.9019909203e-02    1.0120000000e+05
    1.9029907882e-02    1.0120000000e+05
    1.9039904699e-02    1.0120000000e+05
    1.9049903378e-02    1.0120000000e+05
    1.9059900194e-02    1.0120000000e+05
    1.9069898874e-02    1.0120000000e+05
    1.9079895690e-02    1.0120000000e+05
    1.9089894369e-02    1.0120000000e+05
    1.9099893048e-02    1.0120000000e+05
    1.9109889865e-02    1.0120000000e+05
    1.9119888544e-02    1.0120000000e+05
    1.9129887223e-02    1.0120000000e+05
    1.9139885902e-02    1.0120000000e+05
    1.9149884582e-02    1.0120000000e+05
    1.9159881398e-02    1.0120000000e+05
    1.9169880077e-02    1.0120000000e+05
    1.9179878756e-02    1.0120000000e+05
    1.9189877436e-02    1.0120000000e+05
    1.9199876115e-02    1.0120000000e+05
    1.9209874794e-02    1.0120000000e+05
    1.9219873473e-02    1.0120000000e+05
    1.9229872152e-02    1.0120000000e+05
    1.9239870831e-02    1.0120000000e+05
    1.9249869511e-02    1.0120000000e+05
    1.9259868190e-02    1.0120000000e+05
    1.9269866869e-02    1.0120000000e+05
    1.9279867411e-02    1.0120000000e+05
    1.9289866090e-02    1.0120000000e+05
    1.9299864769e-02    1.0120000000e+05
    1.9309863448e-02    1.0120000000e+05
    1.9319862127e-02    1.0120000000e+05
    1.9329860806e-02    1.0120000000e+05
    1.9339861348e-02    1.0120000000e+05
    1.9349860027e-02    1.0120000000e+05
    1.9359858707e-02    1.0120000000e+05
    1.9369859248e-02    1.0120000000e+05
    1.9379857928e-02    1.0120000000e+05
    1.9389856607e-02    1.0120000000e+05
    1.9399857149e-02    1.0120000000e+05
    1.9409855828e-02    1.0120000000e+05
    1.9419854507e-02    1.0120000000e+05
    1.9429855049e-02    1.0120000000e+05
    1.9439853728e-02    1.0120000000e+05
[...]
    1.3513982296e-01    1.0125727344e+05
    1.3514991105e-01    1.0125725781e+05
    1.3515998423e-01    1.0125724219e+05
    1.3516975939e-01    1.0125722656e+05
    1.3517984748e-01    1.0125721875e+05
    1.3518992066e-01    1.0125721094e+05
    1.3519999385e-01    1.0125718750e+05
    1.3520978391e-01    1.0125716406e+05
    1.3521985710e-01    1.0125715625e+05
    1.3522994518e-01    1.0125714844e+05
    1.3523972034e-01    1.0125712500e+05
    1.3524979353e-01    1.0125710156e+05
    1.3525988162e-01    1.0125708594e+05
    1.3526995480e-01    1.0125707031e+05
    1.3527972996e-01    1.0125705469e+05
    1.3528981805e-01    1.0125703125e+05
    1.3529989123e-01    1.0125702344e+05
    1.3530997932e-01    1.0125699219e+05
    1.3531975448e-01    1.0125697656e+05
    1.3532982767e-01    1.0125696094e+05
    1.3533991575e-01    1.0125693750e+05
    1.3534998894e-01    1.0125691406e+05
    1.3535976410e-01    1.0125689844e+05
    1.3536985219e-01    1.0125687500e+05
    1.3537992537e-01    1.0125685156e+05
    1.3538971543e-01    1.0125683594e+05
    1.3539978862e-01    1.0125681250e+05
    1.3540986180e-01    1.0125678906e+05
    1.3541994989e-01    1.0125677344e+05
    1.3542972505e-01    1.0125674219e+05
    1.3543979824e-01    1.0125672656e+05
    1.3544988632e-01    1.0125671094e+05
    1.3545995951e-01    1.0125667969e+05
    1.3546974957e-01    1.0125665625e+05
    1.3547982275e-01    1.0125663281e+05
    1.3548989594e-01    1.0125660156e+05
    1.3549998403e-01    1.0125658594e+05
    1.3550975919e-01    1.0125656250e+05
    1.3551983237e-01    1.0125653906e+05
    1.3552992046e-01    1.0125652344e+05
    1.3553999364e-01    1.0125649219e+05
    1.3554978371e-01    1.0125647656e+05
    1.3555985689e-01    1.0125646094e+05
    1.3556993008e-01    1.0125642969e+05
    1.3557972014e-01    1.0125640625e+05
    1.3558979332e-01    1.0125638281e+05
    1.3559986651e-01    1.0125635156e+05
    1.3560995460e-01    1.0125633594e+05
    1.3561972976e-01    1.0125631250e+05
    1.3562981784e-01    1.0125628906e+05
    1.3563989103e-01    1.0125627344e+05
    1.3564996421e-01    1.0125624219e+05
    1.3565975428e-01    1.0125621875e+05
    1.3566982746e-01    1.0125619531e+05
    1.3567990065e-01    1.0125616406e+05
    1.3568998873e-01    1.0125614844e+05
    1.3569976389e-01    1.0125612500e+05
    1.3570985198e-01    1.0125610156e+05
    1.3571992517e-01    1.0125608594e+05
    1.3572970033e-01    1.0125606250e+05
    1.3573978841e-01    1.0125603906e+05
    1.3574986160e-01    1.0125602344e+05
    1.3575993478e-01    1.0125599219e+05
    1.3576972485e-01    1.0125597656e+05
    1.3577979803e-01    1.0125596094e+05
    1.3578988612e-01    1.0125592969e+05
    1.3579995930e-01    1.0125591406e+05
    1.3580973446e-01    1.0125589844e+05
    1.3581982255e-01    1.0125586719e+05
    1.3582989573e-01    1.0125585156e+05
    1.3583996892e-01    1.0125583594e+05
    1.3584975898e-01    1.0125581250e+05
    1.3585983217e-01    1.0125578906e+05
    1.3586992025e-01    1.0125577344e+05
    1.3587999344e-01    1.0125575000e+05
    1.3588976860e-01    1.0125572656e+05
    1.3589985669e-01    1.0125571094e+05
    1.3590992987e-01    1.0125569531e+05
    1.3591971993e-01    1.0125567969e+05
    1.3592979312e-01    1.0125565625e+05
    1.3593986630e-01    1.0125564844e+05
    1.3594995439e-01    1.0125562500e+05
    1.3595972955e-01    1.0125560156e+05
    1.3596980274e-01    1.0125558594e+05
    1.3597989082e-01    1.0125557031e+05
    1.3598996401e-01    1.0125555469e+05
    1.3599975407e-01    1.0125553125e+05
    1.3600982726e-01    1.0125552344e+05
    1.3601990044e-01    1.0125550000e+05
    1.3602998853e-01    1.0125547656e+05
    1.3603976369e-01    1.0125546875e+05
    1.3604983687e-01    1.0125546094e+05
    1.3605992496e-01    1.0125543750e+05
    1.3606999815e-01    1.0125541406e+05
    1.3607977331e-01    1.0125540625e+05
    1.3608986139e-01    1.0125539844e+05
    1.3609993458e-01    1.0125537500e+05
    1.3610972464e-01    1.0125535156e+05
    1.3611979783e-01    1.0125534375e+05
    1.3612987101e-01    1.0125533594e+05
    1.3613995910e-01    1.0125531250e+05
    1.3614973426e-01    1.0125530469e+05
    1.3615980744e-01    1.0125528906e+05
    1.3616989553e-01    1.0125527344e+05
    1.3617996871e-01    1.0125525781e+05
    1.3618975878e-01    1.0125525000e+05
    1.3619983196e-01    1.0125522656e+05
    1.3620990515e-01    1.0125521875e+05
    1.3621999323e-01    1.0125521094e+05
    1.3622976840e-01    1.0125519531e+05
    1.3623984158e-01    1.0125517969e+05
    1.3624992967e-01    1.0125516406e+05
    1.3625970483e-01    1.0125515625e+05
    1.3626979291e-01    1.0125514844e+05
    1.3627986610e-01    1.0125513281e+05
    1.3628993928e-01    1.0125512500e+05
    1.3629972935e-01    1.0125510156e+05
    1.3630980253e-01    1.0125510156e+05
    1.3631987572e-01    1.0125509375e+05
    1.3632996380e-01    1.0125508594e+05
    1.3633973897e-01    1.0125507031e+05
    1.3634982705e-01    1.0125506250e+05
    1.3635990024e-01    1.0125503906e+05
    1.3636997342e-01    1.0125503906e+05
    1.3637976348e-01    1.0125503125e+05
    1.3638983667e-01    1.0125502344e+05
    1.3639990985e-01    1.0125500781e+05
    1.3640999794e-01    1.0125500000e+05
    1.3641977310e-01    1.0125499219e+05
    1.3642986119e-01    1.0125497656e+05
    1.3643993437e-01    1.0125497656e+05
    1.3644970953e-01    1.0125496094e+05
    1.3645979762e-01    1.0125496094e+05
    1.3646987081e-01    1.0125494531e+05
    1.3647994399e-01    1.0125493750e+05
    1.3648973405e-01    1.0125492969e+05
    1.3649980724e-01    1.0125491406e+05
    1.3650989532e-01    1.0125491406e+05
    1.3651996851e-01    1.0125490625e+05
    1.3652974367e-01    1.0125489844e+05
    1.3653983176e-01    1.0125489844e+05
    1.3654990494e-01    1.0125488281e+05
    1.3655997813e-01    1.0125487500e+05
    1.3656976819e-01    1.0125486719e+05
    1.3657984138e-01    1.0125485156e+05
    1.3658992946e-01    1.0125485156e+05
    1.3659970462e-01    1.0125484375e+05
    1.3660977781e-01    1.0125483594e+05
    1.3661986589e-01    1.0125483594e+05
    1.3662993908e-01    1.0125483594e+05
    1.3663972914e-01    1.0125482031e+05
    1.3664980233e-01    1.0125481250e+05
    1.3665987551e-01    1.0125480469e+05
    1.3666996360e-01    1.0125478906e+05
    1.3667973876e-01    1.0125478906e+05
    1.3668981194e-01    1.0125478125e+05
    1.3669990003e-01    1.0125478125e+05
    1.3670997322e-01    1.0125477344e+05
    1.3671976328e-01    1.0125477344e+05
    1.3672983646e-01    1.0125475781e+05
    1.3673990965e-01    1.0125475000e+05
    1.3674999774e-01    1.0125475000e+05
    1.3675977290e-01    1.0125474219e+05
    1.3676984608e-01    1.0125472656e+05
    1.3677993417e-01    1.0125472656e+05
    1.3678970933e-01    1.0125471875e+05
    1.3679979742e-01    1.0125471875e+05
    1.3680987060e-01    1.0125471094e+05
    1.3681994379e-01    1.0125471094e+05
    1.3682973385e-01    1.0125469531e+05
    1.3683980703e-01    1.0125469531e+05
    1.3684988022e-01    1.0125468750e+05
    1.3685996830e-01    1.0125467969e+05
    1.3686974347e-01    1.0125466406e+05
    1.3687983155e-01    1.0125466406e+05
    1.3688990474e-01    1.0125466406e+05
    1.3689997792e-01    1.0125465625e+05
    1.3690976799e-01    1.0125464844e+05
    1.3691984117e-01    1.0125464844e+05
    1.3692991436e-01    1.0125464844e+05
    1.3694000244e-01    1.0125463281e+05
    1.3694977760e-01    1.0125462500e+05
    1.3695986569e-01    1.0125462500e+05
    1.3696993887e-01    1.0125461719e+05
    1.3697971404e-01    1.0125460156e+05
    1.3698980212e-01    1.0125460156e+05
    1.3699987531e-01    1.0125459375e+05
    1.3700994849e-01    1.0125459375e+05
    1.3701973855e-01    1.0125458594e+05
    1.3702981174e-01    1.0125458594e+05
    1.3703989983e-01    1.0125457031e+05
    1.3704997301e-01    1.0125457031e+05
    1.3705974817e-01    1.0125456250e+05
    1.3706983626e-01    1.0125455469e+05
    1.3707990944e-01    1.0125453906e+05
    1.3708998263e-01    1.0125453906e+05
    1.3709977269e-01    1.0125453906e+05
    1.3710984588e-01    1.0125453125e+05
    1.3711993396e-01    1.0125452344e+05
    1.3712970912e-01    1.0125452344e+05
    1.3713978231e-01    1.0125450781e+05
    1.3714987040e-01    1.0125450000e+05
    1.3715994358e-01    1.0125449219e+05
    1.3716971874e-01    1.0125449219e+05
    1.3717980683e-01    1.0125447656e+05
    1.3718988001e-01    1.0125447656e+05
    1.3719996810e-01    1.0125446875e+05
    1.3720974326e-01    1.0125446094e+05
    1.3721981645e-01    1.0125446094e+05
    1.3722990453e-01    1.0125444531e+05
    1.3723997772e-01    1.0125444531e+05
    1.3724975288e-01    1.0125443750e+05
    1.3725984097e-01    1.0125442969e+05
    1.3726991415e-01    1.0125441406e+05
    1.3728000224e-01    1.0125441406e+05
    1.3728977740e-01    1.0125440625e+05
    1.3729985058e-01    1.0125439844e+05
    1.3730993867e-01    1.0125439844e+05
    1.3731971383e-01    1.0125438281e+05
    1.3732978702e-01    1.0125437500e+05
    1.3733987510e-01    1.0125436719e+05
    1.3734994829e-01    1.0125435156e+05
    1.3735973835e-01    1.0125435156e+05
    1.3736981153e-01    1.0125434375e+05
    1.3737988472e-01    1.0125433594e+05
    1.3738997281e-01    1.0125433594e+05
    1.3739974797e-01    1.0125432031e+05
    1.3740982115e-01    1.0125430469e+05
    1.3741990924e-01    1.0125428906e+05
    1.3742998242e-01    1.0125428125e+05
    1.3743977249e-01    1.0125425781e+05
    1.3744984567e-01    1.0125422656e+05
    1.3745991886e-01    1.0125421094e+05
    1.3746970892e-01    1.0125416406e+05
    1.3747978210e-01    1.0125413281e+05
    1.3748985529e-01    1.0125408594e+05
    1.3749994338e-01    1.0125400000e+05
    1.3750971854e-01    1.0125391406e+05
    1.3751980662e-01    1.0125378906e+05
    1.3752987981e-01    1.0125363281e+05
    1.3753995299e-01    1.0125342969e+05
    1.3754974306e-01    1.0125317969e+05
    1.3755981624e-01    1.0125284375e+05
    1.3756988943e-01    1.0125241406e+05
    1.3757997751e-01    1.0125185156e+05
    1.3758975267e-01    1.0125115625e+05
    1.3759984076e-01    1.0125022656e+05
    1.3760991395e-01    1.0124903906e+05
    1.3761998713e-01    1.0124753906e+05
    1.3762977719e-01    1.0124572656e+05
    1.3763985038e-01    1.0124341406e+05
    1.3764992356e-01    1.0124059375e+05
    1.3765971363e-01    1.0123728906e+05
    1.3766978681e-01    1.0123325000e+05
    1.3767987490e-01    1.0122853906e+05
    1.3768994808e-01    1.0122316406e+05
    1.3769972324e-01    1.0121730469e+05
    1.3770981133e-01    1.0121060156e+05
    1.3771988451e-01    1.0120324219e+05
    1.3772995770e-01    1.0119521094e+05
    1.3773974776e-01    1.0118678906e+05
    1.3774982095e-01    1.0117753906e+05
    1.3775990903e-01    1.0116774219e+05
    1.3776998222e-01    1.0115746094e+05
    1.3777975738e-01    1.0114706250e+05
    1.3778984547e-01    1.0113597656e+05
    1.3779991865e-01    1.0112455469e+05
    1.3780999184e-01    1.0111283594e+05
    1.3781978190e-01    1.0110117969e+05
    1.3782985508e-01    1.0108893750e+05
    1.3783994317e-01    1.0107650000e+05
    1.3784971833e-01    1.0106427344e+05
    1.3785979152e-01    1.0105150000e+05
    1.3786987960e-01    1.0103859375e+05
    1.3787995279e-01    1.0102557031e+05
    1.3788974285e-01    1.0101283594e+05
    1.3789981604e-01    1.0099960156e+05
    1.3790988922e-01    1.0098628906e+05
    1.3791997731e-01    1.0097291406e+05
    1.3792975247e-01    1.0095987500e+05
    1.3793982565e-01    1.0094637500e+05
    1.3794991374e-01    1.0093281250e+05
    1.3795998693e-01    1.0091921094e+05
    1.3796977699e-01    1.0090596875e+05
    1.3797985017e-01    1.0089228906e+05
    1.3798992336e-01    1.0087857031e+05
    1.3799971342e-01    1.0086521875e+05
    1.3800978661e-01    1.0085143750e+05
    1.3801985979e-01    1.0083763281e+05
    1.3802994788e-01    1.0082381250e+05
    1.3803972304e-01    1.0081036719e+05
    1.3804981112e-01    1.0079647656e+05
    1.3805988431e-01    1.0078259375e+05
    1.3806995749e-01    1.0076868750e+05
    1.3807974756e-01    1.0075517969e+05
    1.3808982074e-01    1.0074122656e+05
    1.3809989393e-01    1.0072728125e+05
    1.3810998201e-01    1.0071331250e+05
    1.3811975718e-01    1.0069975781e+05
    1.3812984526e-01    1.0068577344e+05
    1.3813991845e-01    1.0067177344e+05
    1.3814999163e-01    1.0065777344e+05
    1.3815978169e-01    1.0064416406e+05
    1.3816985488e-01    1.0063014844e+05
    1.3817992806e-01    1.0061611719e+05
    1.3818971813e-01    1.0060249219e+05
    1.3819979131e-01    1.0058844531e+05
    1.3820987940e-01    1.0057439844e+05
    1.3821995258e-01    1.0056035156e+05
    1.3822972775e-01    1.0054671094e+05
    1.3823981583e-01    1.0053264844e+05
    1.3824988902e-01    1.0051857031e+05
    1.3825996220e-01    1.0050450781e+05
    1.3826975226e-01    1.0049084375e+05
    1.3827982545e-01    1.0047675781e+05
    1.3828991354e-01    1.0046267969e+05
    1.3829998672e-01    1.0044860156e+05
    1.3830976188e-01    1.0043492969e+05
    1.3831984997e-01    1.0042083594e+05
    1.3832992315e-01    1.0040674219e+05
    1.3833971322e-01    1.0039306250e+05
    1.3834978640e-01    1.0037896875e+05
    1.3835985959e-01    1.0036486719e+05
    1.3836994767e-01    1.0035077344e+05
    1.3837972283e-01    1.0033708594e+05
    1.3838979602e-01    1.0032297656e+05
    1.3839988410e-01    1.0030888281e+05
    1.3840995729e-01    1.0029477344e+05
    1.3841974735e-01    1.0028108594e+05
    1.3842982054e-01    1.0026697656e+05
    1.3843989372e-01    1.0025287500e+05
    1.3844998181e-01    1.0023877344e+05
    1.3845975697e-01    1.0022508594e+05
    1.3846983016e-01    1.0021097656e+05
    1.3847991824e-01    1.0019686719e+05
    1.3848999143e-01    1.0018275781e+05
    1.3849978149e-01    1.0016907031e+05
    1.3850985467e-01    1.0015496875e+05
    1.3851992786e-01    1.0014085156e+05
    1.3852971792e-01    1.0012716406e+05
    1.3853979111e-01    1.0011307031e+05
    1.3854986429e-01    1.0009896094e+05
    1.3855995238e-01    1.0008485156e+05
    1.3856972754e-01    1.0007116406e+05
    1.3857981563e-01    1.0005706250e+05
    1.3858988881e-01    1.0004296094e+05
    1.3859996200e-01    1.0002885156e+05
    1.3860975206e-01    1.0001516406e+05
    1.3861982524e-01    1.0000108594e+05
    1.3862989843e-01    9.9986976562e+04
    1.3863998652e-01    9.9972875000e+04
    1.3864976168e-01    9.9959195312e+04
    1.3865984976e-01    9.9945101562e+04
    1.3866992295e-01    9.9931000000e+04
    1.3867999613e-01    9.9916906250e+04
    1.3868978620e-01    9.9903226562e+04
    1.3869985938e-01    9.9889132812e+04
    1.3870993257e-01    9.9875039062e+04
    1.3871972263e-01    9.9861367188e+04
    1.3872979581e-01    9.9847281250e+04
    1.3873988390e-01    9.9833187500e+04
    1.3874995708e-01    9.9819101562e+04
    1.3875973225e-01    9.9805429688e+04
    1.3876982033e-01    9.9791351562e+04
    1.3877989352e-01    9.9777273438e+04
    1.3878996670e-01    9.9763187500e+04
    1.3879975677e-01    9.9749523438e+04
    1.3880982995e-01    9.9735437500e+04
    1.3881991804e-01    9.9721351562e+04
    1.3882999122e-01    9.9707289062e+04
    1.3883976638e-01    9.9693625000e+04
    1.3884985447e-01    9.9679554688e+04
    1.3885992765e-01    9.9665476562e+04
    1.3886971772e-01    9.9651835938e+04
    1.3887979090e-01    9.9637773438e+04
    1.3888986409e-01    9.9623695312e+04
    1.3889995217e-01    9.9609632812e+04
    1.3890972733e-01    9.9595976562e+04
    1.3891980052e-01    9.9581914062e+04
    1.3892988861e-01    9.9567867188e+04
    1.3893996179e-01    9.9553812500e+04
    1.3894975185e-01    9.9540164062e+04
    1.3895982504e-01    9.9526117188e+04
    1.3896989822e-01    9.9512070312e+04
    1.3897998631e-01    9.9498023438e+04
    1.3898976147e-01    9.9484382812e+04
    1.3899983466e-01    9.9470343750e+04
    1.3900992274e-01    9.9456289062e+04
    1.3901999593e-01    9.9442257812e+04
    1.3902978599e-01    9.9428632812e+04
    1.3903985918e-01    9.9414601562e+04
    1.3904993236e-01    9.9400570312e+04
    1.3905972242e-01    9.9386945312e+04
    1.3906979561e-01    9.9372914062e+04
    1.3907986879e-01    9.9358898438e+04
    1.3908995688e-01    9.9344867188e+04
    1.3909973204e-01    9.9331257812e+04
    1.3910982013e-01    9.9317242188e+04
    1.3911989331e-01    9.9303226562e+04
    1.3912996650e-01    9.9289210938e+04
    1.3913975656e-01    9.9275601562e+04
    1.3914982975e-01    9.9261601562e+04
    1.3915990293e-01    9.9247593750e+04
    1.3916999102e-01    9.9233593750e+04
    1.3917976618e-01    9.9220000000e+04
    1.3918985426e-01    9.9206007812e+04
    1.3919992745e-01    9.9192007812e+04
    1.3920970261e-01    9.9178429688e+04
    1.3921979070e-01    9.9164437500e+04
    1.3922986388e-01    9.9150460938e+04
    1.3923993707e-01    9.9136468750e+04
    1.3924972713e-01    9.9122898438e+04
    1.3925980031e-01    9.9108914062e+04
    1.3926988840e-01    9.9094945312e+04
    1.3927996159e-01    9.9080976562e+04
    1.3928973675e-01    9.9067414062e+04
    1.3929982483e-01    9.9053460938e+04
    1.3930989802e-01    9.9039492188e+04
    1.3931997120e-01    9.9025531250e+04
    1.3932976127e-01    9.9011976562e+04
    1.3933983445e-01    9.8998039062e+04
    1.3934992254e-01    9.8984085938e+04
    1.3935999572e-01    9.8970148438e+04
    1.3936977088e-01    9.8956601562e+04
    1.3937985897e-01    9.8942679688e+04
    1.3938993216e-01    9.8928742188e+04
    1.3939972222e-01    9.8915226562e+04
    1.3940979540e-01    9.8901289062e+04
    1.3941986859e-01    9.8887375000e+04
    1.3942995667e-01    9.8873460938e+04
    1.3943973184e-01    9.8859960938e+04
    1.3944980502e-01    9.8846054688e+04
    1.3945989311e-01    9.8832148438e+04
    1.3946996629e-01    9.8818250000e+04
    1.3947975636e-01    9.8804773438e+04
    1.3948982954e-01    9.8790875000e+04
    1.3949990273e-01    9.8776992188e+04
    1.3950999081e-01    9.8763101562e+04
    1.3951976597e-01    9.8749648438e+04
    1.3952983916e-01    9.8735773438e+04
    1.3953992724e-01    9.8721914062e+04
    1.3954970241e-01    9.8708460938e+04
    1.3955979049e-01    9.8694601562e+04
    1.3956986368e-01    9.8680773438e+04
    1.3957993686e-01    9.8666929688e+04
    1.3958972692e-01    9.8653500000e+04
    1.3959980011e-01    9.8639664062e+04
    1.3960987329e-01    9.8625851562e+04
    1.3961996138e-01    9.8612039062e+04
    1.3962973654e-01    9.8598648438e+04
    1.3963982463e-01    9.8584851562e+04
    1.3964989781e-01    9.8571062500e+04
    1.3965997100e-01    9.8557281250e+04
    1.3966976106e-01    9.8543914062e+04
    1.3967983425e-01    9.8530156250e+04
    1.3968990743e-01    9.8516406250e+04
    1.3969999552e-01    9.8502664062e+04
    1.3970977068e-01    9.8489343750e+04
    1.3971985877e-01    9.8475625000e+04
    1.3972993195e-01    9.8461914062e+04
    1.3973970711e-01    9.8448632812e+04
    1.3974979520e-01    9.8434960938e+04
    1.3975986838e-01    9.8421289062e+04
    1.3976994157e-01    9.8407656250e+04
    1.3977973163e-01    9.8394429688e+04
    1.3978980482e-01    9.8380820312e+04
    1.3979989290e-01    9.8367226562e+04
    1.3980996609e-01    9.8353664062e+04
    1.3981974125e-01    9.8340531250e+04
    1.3982982934e-01    9.8327023438e+04
    1.3983990252e-01    9.8313539062e+04
    1.3984997571e-01    9.8300093750e+04
    1.3985976577e-01    9.8287085938e+04
    1.3986983895e-01    9.8273710938e+04
    1.3987992704e-01    9.8260398438e+04
    1.3989000022e-01    9.8247117188e+04
    1.3989977539e-01    9.8234289062e+04
    1.3990986347e-01    9.8221148438e+04
    1.3991993666e-01    9.8208085938e+04
    1.3992972672e-01    9.8195476562e+04
    1.3993979990e-01    9.8182601562e+04
    1.3994987309e-01    9.8169851562e+04
    1.3995996118e-01    9.8157242188e+04
    1.3996973634e-01    9.8145164062e+04
    1.3997980952e-01    9.8132914062e+04
    1.3998989761e-01    9.8120914062e+04
    1.3999997079e-01    9.8109210938e+04
endcurve
