Curveplot
LS-DYNA keyword deck by LS-PrePost                          
Time
Pressure
Defined Connection
Pressure @ 53 #pts=14001
* Minval=     9.6495164062e+04 at time=         0.0819198489
* Maxval=     1.1353380469e+05 at time=         0.0616498031
    0.0000000000e+00    1.0120000000e+05
    9.9483813756e-06    1.0120000000e+05
    1.9897117454e-05    1.0120000000e+05
    2.9967555747e-05    1.0120000000e+05
    3.9967948396e-05    1.0120000000e+05
    4.9982074415e-05    1.0120000000e+05
    5.9978989157e-05    1.0120000000e+05
    6.9948007877e-05    1.0120000000e+05
    7.9960947915e-05    1.0120000000e+05
    8.9972083515e-05    1.0120000000e+05
    9.9990662420e-05    1.0120000000e+05
    1.0994238255e-04    1.0120000000e+05
    1.1995017121e-04    1.0120000000e+05
    1.2993547716e-04    1.0120000000e+05
    1.3996184862e-04    1.0120000000e+05
    1.4994919184e-04    1.0120000000e+05
    1.5996358707e-04    1.0120000000e+05
    1.6999866057e-04    1.0120000000e+05
    1.7996944371e-04    1.0120000000e+05
    1.8994540733e-04    1.0120000000e+05
    1.9991972658e-04    1.0120000000e+05
    2.0996796957e-04    1.0120000000e+05
    2.1991977701e-04    1.0120000000e+05
    2.2993418679e-04    1.0120000000e+05
    2.3992185015e-04    1.0120000000e+05
    2.4996293359e-04    1.0120000000e+05
    2.5996562908e-04    1.0120000000e+05
    2.6992274798e-04    1.0120000000e+05
    2.7991764364e-04    1.0120000000e+05
    2.8994635795e-04    1.0120000000e+05
    2.9991200427e-04    1.0120000000e+05
    3.0999458977e-04    1.0120000000e+05
    3.1990572461e-04    1.0120000000e+05
    3.2991508488e-04    1.0120000000e+05
    3.3992098179e-04    1.0120000000e+05
    3.4992204746e-04    1.0120000000e+05
    3.5991665209e-04    1.0120000000e+05
    3.6990302033e-04    1.0120000000e+05
    3.7997955224e-04    1.0120000000e+05
    3.8994490751e-04    1.0120000000e+05
    3.9999882574e-04    1.0120000000e+05
    4.0993638686e-04    1.0120000000e+05
    4.1996076470e-04    1.0120000000e+05
    4.2996840784e-04    1.0120000000e+05
    4.3995777378e-04    1.0120000000e+05
    4.4992708717e-04    1.0120000000e+05
    4.5998214046e-04    1.0120000000e+05
    4.6990741976e-04    1.0120000000e+05
    4.7991707106e-04    1.0120000000e+05
    4.8990204232e-04    1.0120000000e+05
    4.9997185124e-04    1.0120000000e+05
    5.0990341697e-04    1.0120000000e+05
    5.1991816144e-04    1.0120000000e+05
    5.2990322001e-04    1.0120000000e+05
    5.3997169016e-04    1.0120000000e+05
    5.4989301134e-04    1.0120000000e+05
    5.5989599787e-04    1.0120000000e+05
    5.6998163927e-04    1.0120000000e+05
    5.7991372887e-04    1.0120000000e+05
    5.8992690174e-04    1.0120000000e+05
    5.9990154114e-04    1.0120000000e+05
    6.0995755484e-04    1.0120000000e+05
    6.1997340526e-04    1.0120000000e+05
    6.2994722975e-04    1.0120000000e+05
    6.3987710746e-04    1.0120000000e+05
    6.4988684608e-04    1.0120000000e+05
    6.5997749334e-04    1.0120000000e+05
    6.6989491461e-04    1.0120000000e+05
    6.7989126546e-04    1.0120000000e+05
    6.8996782647e-04    1.0120000000e+05
    6.9999485277e-04    1.0120000000e+05
    7.0997036528e-04    1.0120000000e+05
    7.1989232674e-04    1.0120000000e+05
    7.2989251930e-04    1.0120000000e+05
    7.3997204890e-04    1.0120000000e+05
    7.4999599019e-04    1.0120000000e+05
    7.5996218948e-04    1.0120000000e+05
    7.6986855129e-04    1.0120000000e+05
    7.7999115456e-04    1.0120000000e+05
    7.8991352348e-04    1.0120000000e+05
    7.9991290113e-04    1.0120000000e+05
    8.0999027705e-04    1.0120000000e+05
    8.1985944416e-04    1.0120000000e+05
    8.2994892728e-04    1.0120000000e+05
    8.3997141337e-04    1.0120000000e+05
    8.4992457414e-04    1.0120000000e+05
    8.5995398695e-04    1.0120000000e+05
    8.6991151329e-04    1.0120000000e+05
    8.7994494243e-04    1.0120000000e+05
    8.8990386575e-04    1.0120000000e+05
    8.9993828442e-04    1.0120000000e+05
    9.0989551973e-04    1.0120000000e+05
    9.1992778471e-04    1.0120000000e+05
    9.2988007236e-04    1.0120000000e+05
    9.3990686582e-04    1.0120000000e+05
    9.4985082978e-04    1.0120000000e+05
    9.5986883389e-04    1.0120000000e+05
    9.6996175125e-04    1.0120000000e+05
    9.7996857949e-04    1.0120000000e+05
    9.8988635000e-04    1.0120000000e+05
    9.9987699650e-04    1.0120000000e+05
    1.0099412175e-03    1.0120000000e+05
    1.0199130047e-03    1.0120000000e+05
    1.0299575515e-03    1.0120000000e+05
    1.0399065213e-03    1.0120000000e+05
    1.0499275522e-03    1.0120000000e+05
    1.0598496301e-03    1.0120000000e+05
    1.0698429542e-03    1.0120000000e+05
    1.0799082229e-03    1.0120000000e+05
    1.0898708133e-03    1.0120000000e+05
    1.0999043006e-03    1.0120000000e+05
    1.1098316172e-03    1.0120000000e+05
    1.1198290158e-03    1.0120000000e+05
    1.1298970785e-03    1.0120000000e+05
    1.1398548959e-03    1.0120000000e+05
    1.1498824460e-03    1.0120000000e+05
    1.1599806603e-03    1.0120000000e+05
    1.1699644383e-03    1.0120000000e+05
    1.1798311025e-03    1.0120000000e+05
    1.1899534147e-03    1.0120000000e+05
    1.1999574490e-03    1.0120000000e+05
    1.2098400621e-03    1.0120000000e+05
    1.2199821649e-03    1.0120000000e+05
    1.2298084330e-03    1.0120000000e+05
    1.2398957042e-03    1.0120000000e+05
    1.2498567812e-03    1.0120000000e+05
    1.2598856119e-03    1.0120000000e+05
    1.2699833605e-03    1.0120000000e+05
    1.2799503747e-03    1.0120000000e+05
    1.2899849098e-03    1.0120000000e+05
    1.2998852180e-03    1.0120000000e+05
    1.3098518830e-03    1.0120000000e+05
    1.3198857196e-03    1.0120000000e+05
    1.3299875427e-03    1.0120000000e+05
    1.3399497839e-03    1.0120000000e+05
    1.3499788474e-03    1.0120000000e+05
    1.3598648366e-03    1.0120000000e+05
    1.3698159019e-03    1.0120000000e+05
    1.3798337895e-03    1.0120000000e+05
    1.3899184996e-03    1.0120000000e+05
    1.3998546638e-03    1.0120000000e+05
    1.4098569518e-03    1.0120000000e+05
    1.4199259458e-03    1.0120000000e+05
    1.4298413880e-03    1.0120000000e+05
    1.4398222556e-03    1.0120000000e+05
    1.4498692472e-03    1.0120000000e+05
    1.4599835267e-03    1.0120000000e+05
    1.4699390158e-03    1.0120000000e+05
    1.4799602795e-03    1.0120000000e+05
    1.4898178633e-03    1.0120000000e+05
    1.4999717241e-03    1.0120000000e+05
    1.5099612065e-03    1.0120000000e+05
    1.5197810717e-03    1.0120000000e+05
    1.5299015213e-03    1.0120000000e+05
    1.5398527030e-03    1.0120000000e+05
    1.5498698922e-03    1.0120000000e+05
    1.5599535545e-03    1.0120000000e+05
    1.5698615462e-03    1.0120000000e+05
    1.5798337990e-03    1.0120000000e+05
    1.5898713609e-03    1.0120000000e+05
    1.5999772586e-03    1.0120000000e+05
    1.6099008499e-03    1.0120000000e+05
    1.6198899830e-03    1.0120000000e+05
    1.6299447743e-03    1.0120000000e+05
    1.6398133012e-03    1.0120000000e+05
    1.6497457400e-03    1.0120000000e+05
    1.6597434878e-03    1.0120000000e+05
    1.6698078252e-03    1.0120000000e+05
    1.6799392179e-03    1.0120000000e+05
    1.6898763133e-03    1.0120000000e+05
    1.6998788342e-03    1.0120000000e+05
    1.7099481774e-03    1.0120000000e+05
    1.7198169371e-03    1.0120000000e+05
    1.7297501909e-03    1.0120000000e+05
    1.7397493357e-03    1.0120000000e+05
    1.7498150701e-03    1.0120000000e+05
    1.7599480925e-03    1.0120000000e+05
    1.7698728479e-03    1.0120000000e+05
    1.7798637273e-03    1.0120000000e+05
    1.7899209633e-03    1.0120000000e+05
    1.7997634131e-03    1.0120000000e+05
    1.8099549925e-03    1.0120000000e+05
    1.8199301558e-03    1.0120000000e+05
    1.8299720250e-03    1.0120000000e+05
    1.8397917738e-03    1.0120000000e+05
    1.8499682192e-03    1.0120000000e+05
    1.8599204486e-03    1.0120000000e+05
    1.8699392676e-03    1.0120000000e+05
    1.8797283992e-03    1.0120000000e+05
    1.8898817943e-03    1.0120000000e+05
    1.8998031737e-03    1.0120000000e+05
    1.9097912591e-03    1.0120000000e+05
    1.9198472146e-03    1.0120000000e+05
    1.9299716223e-03    1.0120000000e+05
    1.9398559816e-03    1.0120000000e+05
    1.9498069305e-03    1.0120000000e+05
    1.9598256331e-03    1.0120000000e+05
    1.9699127879e-03    1.0120000000e+05
    1.9797515124e-03    1.0120000000e+05
    1.9899769686e-03    1.0120000000e+05
    1.9999518991e-03    1.0120000000e+05
    2.0099952817e-03    1.0120000000e+05
    2.0197809208e-03    1.0120000000e+05
    2.0299623720e-03    1.0120000000e+05
    2.0398842171e-03    1.0120000000e+05
    2.0498740487e-03    1.0120000000e+05
    2.0599337295e-03    1.0120000000e+05
    2.0697251894e-03    1.0120000000e+05
    2.0799248014e-03    1.0120000000e+05
    2.0898540970e-03    1.0120000000e+05
    2.0998525433e-03    1.0120000000e+05
    2.1099215373e-03    1.0120000000e+05
    2.1197113674e-03    1.0120000000e+05
    2.1299221553e-03    1.0120000000e+05
    2.1398514509e-03    1.0120000000e+05
    2.1498508286e-03    1.0120000000e+05
    2.1599216852e-03    1.0120000000e+05
    2.1697017364e-03    1.0120000000e+05
    2.1799167152e-03    1.0120000000e+05
    2.1898380946e-03    1.0120000000e+05
    2.1998304874e-03    1.0120000000e+05
    2.2098952904e-03    1.0120000000e+05
    2.2196569480e-03    1.0120000000e+05
    2.2298675030e-03    1.0120000000e+05
    2.2397721186e-03    1.0120000000e+05
    2.2497489117e-03    1.0120000000e+05
    2.2597988136e-03    1.0120000000e+05
    2.2699234542e-03    1.0120000000e+05
    2.2797302809e-03    1.0120000000e+05
    2.2896088194e-03    1.0120000000e+05
    2.2999595385e-03    1.0120000000e+05
    2.3099880200e-03    1.0120000000e+05
    2.3196865804e-03    1.0120000000e+05
    2.3298650049e-03    1.0120000000e+05
    2.3397097830e-03    1.0120000000e+05
    2.3496283684e-03    1.0120000000e+05
    2.3596221581e-03    1.0120000000e+05
    2.3696925491e-03    1.0120000000e+05
    2.3798411712e-03    1.0120000000e+05
    2.3896414787e-03    1.0120000000e+05
    2.3999470286e-03    1.0120000000e+05
    2.4098881986e-03    1.0120000000e+05
    2.4198878091e-03    1.0120000000e+05
    2.4299339857e-03    1.0120000000e+05
    2.4395801593e-03    1.0120000000e+05
    2.4496882688e-03    1.0120000000e+05
    2.4598191958e-03    1.0120000000e+05
    2.4699738715e-03    1.0120000000e+05
    2.4797096848e-03    1.0120000000e+05
    2.4899144191e-03    1.0120000000e+05
    2.4996586144e-03    1.0120000000e+05
    2.5098859333e-03    1.0120000000e+05
    2.5196433999e-03    1.0120000000e+05
    2.5298674591e-03    1.0120000000e+05
    2.5396062993e-03    1.0120000000e+05
    2.5498236064e-03    1.0120000000e+05
    2.5595983025e-03    1.0120000000e+05
    2.5697906967e-03    1.0120000000e+05
    2.5799879804e-03    1.0120000000e+05
    2.5897200685e-03    1.0120000000e+05
    2.5999085046e-03    1.0120000000e+05
    2.6096447837e-03    1.0120000000e+05
    2.6198627893e-03    1.0120000000e+05
    2.6296030264e-03    1.0120000000e+05
    2.6397455949e-03    1.0120000000e+05
    2.6499286760e-03    1.0120000000e+05
    2.6596684474e-03    1.0120000000e+05
    2.6698941365e-03    1.0120000000e+05
    2.6796949096e-03    1.0120000000e+05
    2.6898502838e-03    1.0120000000e+05
    2.6999840047e-03    1.0120000000e+05
    2.7097016573e-03    1.0120000000e+05
    2.7199205942e-03    1.0120000000e+05
    2.7296675835e-03    1.0120000000e+05
    2.7399018873e-03    1.0120000000e+05
    2.7497180272e-03    1.0120000000e+05
    2.7599877212e-03    1.0120000000e+05
    2.7698106132e-03    1.0120000000e+05
    2.7796614449e-03    1.0120000000e+05
    2.7899718843e-03    1.0120000000e+05
    2.7998485602e-03    1.0120000000e+05
    2.8097471222e-03    1.0120000000e+05
    2.8196582571e-03    1.0120000000e+05
    2.8295756783e-03    1.0120000000e+05
    2.8399664443e-03    1.0120000000e+05
    2.8498913161e-03    1.0120000000e+05
    2.8598005883e-03    1.0120000000e+05
    2.8697021771e-03    1.0120000000e+05
    2.8796056286e-03    1.0120000000e+05
    2.8899437748e-03    1.0120000000e+05
    2.8998027556e-03    1.0120000000e+05
    2.9096421786e-03    1.0120000000e+05
    2.9198946431e-03    1.0120000000e+05
    2.9296746943e-03    1.0120000000e+05
    2.9398549814e-03    1.0120000000e+05
    2.9499852099e-03    1.0120000000e+05
    2.9596162494e-03    1.0120000000e+05
    2.9696228448e-03    1.0120000000e+05
    2.9799963813e-03    1.0120000000e+05
    2.9898737557e-03    1.0120000000e+05
    2.9996898957e-03    1.0120000000e+05
    3.0098676216e-03    1.0120000000e+05
    3.0199796893e-03    1.0120000000e+05
    3.0296100304e-03    1.0120000000e+05
    3.0395963695e-03    1.0120000000e+05
    3.0499314889e-03    1.0120000000e+05
    3.0597900040e-03    1.0120000000e+05
    3.0699933413e-03    1.0120000000e+05
    3.0797263607e-03    1.0120000000e+05
    3.0898011755e-03    1.0120000000e+05
    3.0998112634e-03    1.0120000000e+05
    3.1097575556e-03    1.0120000000e+05
    3.1196405180e-03    1.0120000000e+05
    3.1298527028e-03    1.0120000000e+05
    3.1399978325e-03    1.0120000000e+05
    3.1496903393e-03    1.0120000000e+05
    3.1597064808e-03    1.0120000000e+05
    3.1696576625e-03    1.0120000000e+05
    3.1799233984e-03    1.0120000000e+05
    3.1897444278e-03    1.0120000000e+05
    3.1998762861e-03    1.0120000000e+05
    3.2099406235e-03    1.0120000000e+05
    3.2199386042e-03    1.0120000000e+05
    3.2298702281e-03    1.0120000000e+05
    3.2397364266e-03    1.0120000000e+05
    3.2498994842e-03    1.0120000000e+05
    3.2599931583e-03    1.0120000000e+05
    3.2696612179e-03    1.0120000000e+05
    3.2799751498e-03    1.0120000000e+05
    3.2898643985e-03    1.0120000000e+05
    3.2996865921e-03    1.0120000000e+05
    3.3097893465e-03    1.0120000000e+05
    3.3198210876e-03    1.0120000000e+05
    3.3297825139e-03    1.0120000000e+05
    3.3396738581e-03    1.0120000000e+05
    3.3498331904e-03    1.0120000000e+05
    3.3599187154e-03    1.0120000000e+05
    3.3699304331e-03    1.0120000000e+05
    3.3798692748e-03    1.0120000000e+05
    3.3897357062e-03    1.0120000000e+05
    3.3998549916e-03    1.0120000000e+05
    3.4098974429e-03    1.0120000000e+05
    3.4198635258e-03    1.0120000000e+05
    3.4297537059e-03    1.0120000000e+05
    3.4398834687e-03    1.0120000000e+05
    3.4499329049e-03    1.0120000000e+05
    3.4599024802e-03    1.0120000000e+05
    3.4697921947e-03    1.0120000000e+05
    3.4799077548e-03    1.0120000000e+05
    3.4899390303e-03    1.0120000000e+05
    3.4998864867e-03    1.0120000000e+05
    3.5097498912e-03    1.0120000000e+05
    3.5198249388e-03    1.0120000000e+05
    3.5298110452e-03    1.0120000000e+05
    3.5399980843e-03    1.0120000000e+05
    3.5498044454e-03    1.0120000000e+05
    3.5598070826e-03    1.0120000000e+05
    3.5699973814e-03    1.0120000000e+05
    3.5798095632e-03    1.0120000000e+05
    3.5898042843e-03    1.0120000000e+05
    3.5999729298e-03    1.0120000000e+05
    3.6097655538e-03    1.0120000000e+05
    3.6199940369e-03    1.0120000000e+05
    3.6298462655e-03    1.0120000000e+05
    3.6398540251e-03    1.0120000000e+05
    3.6497493275e-03    1.0120000000e+05
    3.6597878207e-03    1.0120000000e+05
    3.6699592602e-03    1.0120000000e+05
    3.6797546782e-03    1.0120000000e+05
    3.6899214610e-03    1.0120000000e+05
    3.6999532022e-03    1.0120000000e+05
    3.7098487373e-03    1.0120000000e+05
    3.7198429927e-03    1.0120000000e+05
    3.7299238611e-03    1.0120000000e+05
    3.7398501299e-03    1.0120000000e+05
    3.7498443853e-03    1.0120000000e+05
    3.7598933559e-03    1.0120000000e+05
    3.7699821405e-03    1.0120000000e+05
    3.7798820995e-03    1.0120000000e+05
    3.7897981238e-03    1.0120000000e+05
    3.7999167107e-03    1.0120000000e+05
    3.8098057266e-03    1.0120000000e+05
    3.8198472466e-03    1.0120000000e+05
    3.8298133295e-03    1.0120000000e+05
    3.8398604374e-03    1.0120000000e+05
    3.8499403745e-03    1.0120000000e+05
    3.8599967957e-03    1.0120000000e+05
    3.8699645083e-03    1.0120000000e+05
    3.8799187168e-03    1.0120000000e+05
    3.8898771163e-03    1.0120000000e+05
    3.8998995442e-03    1.0120000000e+05
    3.9099464193e-03    1.0120000000e+05
    3.9199925959e-03    1.0120000000e+05
    3.9299372584e-03    1.0120000000e+05
    3.9399666712e-03    1.0120000000e+05
    3.9499872364e-03    1.0120000000e+05
    3.9599603042e-03    1.0120000000e+05
    3.9699212648e-03    1.0120000000e+05
    3.9799474180e-03    1.0120000000e+05
    3.9898576215e-03    1.0120000000e+05
    3.9998330176e-03    1.0120000000e+05
    4.0099159814e-03    1.0120000000e+05
    4.0199588984e-03    1.0120000000e+05
    4.0299487300e-03    1.0120000000e+05
    4.0399301797e-03    1.0120000000e+05
    4.0498445742e-03    1.0120000000e+05
    4.0598516352e-03    1.0120000000e+05
    4.0699769743e-03    1.0120000000e+05
    4.0798322298e-03    1.0120000000e+05
    4.0899785236e-03    1.0120000000e+05
    4.0999962948e-03    1.0120000000e+05
    4.1099446826e-03    1.0120000000e+05
    4.1199396364e-03    1.0120000000e+05
    4.1298251599e-03    1.0120000000e+05
    4.1399616748e-03    1.0120000000e+05
    4.1499943472e-03    1.0120000000e+05
    4.1598742828e-03    1.0120000000e+05
    4.1698198766e-03    1.0120000000e+05
    4.1798073798e-03    1.0120000000e+05
    4.1898679920e-03    1.0120000000e+05
    4.1999765672e-03    1.0120000000e+05
    4.2099361308e-03    1.0120000000e+05
    4.2199525051e-03    1.0120000000e+05
    4.2298007756e-03    1.0120000000e+05
    4.2399149388e-03    1.0120000000e+05
    4.2498474941e-03    1.0120000000e+05
    4.2598512955e-03    1.0120000000e+05
    4.2698681355e-03    1.0120000000e+05
    4.2799483053e-03    1.0120000000e+05
    4.2898482643e-03    1.0120000000e+05
    4.2997985147e-03    1.0120000000e+05
    4.3099885806e-03    1.0120000000e+05
    4.3198014610e-03    1.0120000000e+05
    4.3298769742e-03    1.0120000000e+05
    4.3399506249e-03    1.0120000000e+05
    4.3498980813e-03    1.0120000000e+05
    4.3598273769e-03    1.0120000000e+05
    4.3698386289e-03    1.0120000000e+05
    4.3798494153e-03    1.0120000000e+05
    4.3899053708e-03    1.0120000000e+05
    4.3998006731e-03    1.0120000000e+05
    4.4098994695e-03    1.0120000000e+05
    4.4198837131e-03    1.0120000000e+05
    4.4298162684e-03    1.0120000000e+05
    4.4398410246e-03    1.0120000000e+05
    4.4498676434e-03    1.0120000000e+05
    4.4599119574e-03    1.0120000000e+05
    4.4698179699e-03    1.0120000000e+05
    4.4799065217e-03    1.0120000000e+05
    4.4898651540e-03    1.0120000000e+05
    4.4998116791e-03    1.0120000000e+05
    4.5098066330e-03    1.0120000000e+05
    4.5198509470e-03    1.0120000000e+05
    4.5298831537e-03    1.0120000000e+05
    4.5399870723e-03    1.0120000000e+05
    4.5498786494e-03    1.0120000000e+05
    4.5597879216e-03    1.0120000000e+05
    4.5699723996e-03    1.0120000000e+05
    4.5799463987e-03    1.0120000000e+05
    4.5899436809e-03    1.0120000000e+05
    4.5999735594e-03    1.0120000000e+05
    4.6097994782e-03    1.0120000000e+05
    4.6198787168e-03    1.0120000000e+05
    4.6299733222e-03    1.0120000000e+05
    4.6398728155e-03    1.0120000000e+05
    4.6497909352e-03    1.0120000000e+05
    4.6599553898e-03    1.0120000000e+05
    4.6699168161e-03    1.0120000000e+05
    4.6798973344e-03    1.0120000000e+05
    4.6898955479e-03    1.0120000000e+05
    4.6999123879e-03    1.0120000000e+05
    4.7099469230e-03    1.0120000000e+05
    4.7197658569e-03    1.0120000000e+05
    4.7298371792e-03    1.0120000000e+05
    4.7399247997e-03    1.0120000000e+05
    4.7497879714e-03    1.0120000000e+05
    4.7599058598e-03    1.0120000000e+05
    4.7698044218e-03    1.0120000000e+05
    4.7799502499e-03    1.0120000000e+05
    4.7898683697e-03    1.0120000000e+05
    4.7998018563e-03    1.0120000000e+05
    4.8099835403e-03    1.0120000000e+05
    4.8199375160e-03    1.0120000000e+05
    4.8299008049e-03    1.0120000000e+05
    4.8398724757e-03    1.0120000000e+05
    4.8498506658e-03    1.0120000000e+05
    4.8598349094e-03    1.0120000000e+05
    4.8698252067e-03    1.0120000000e+05
    4.8798173666e-03    1.0120000000e+05
    4.8898118548e-03    1.0120000000e+05
    4.8998063430e-03    1.0120000000e+05
    4.9098017626e-03    1.0120000000e+05
    4.9197976477e-03    1.0120000000e+05
    4.9297930673e-03    1.0120000000e+05
    4.9397894181e-03    1.0120000000e+05
    4.9497857690e-03    1.0120000000e+05
    4.9597816542e-03    1.0120000000e+05
    4.9697780050e-03    1.0120000000e+05
    4.9797738902e-03    1.0120000000e+05
    4.9897693098e-03    1.0120000000e+05
    4.9997647293e-03    1.0120000000e+05
    5.0099976361e-03    1.0120000000e+05
    5.0199921243e-03    1.0120000000e+05
    5.0299861468e-03    1.0120000000e+05
    5.0399797037e-03    1.0120000000e+05
    5.0499727950e-03    1.0120000000e+05
    5.0599649549e-03    1.0120000000e+05
    5.0699566491e-03    1.0120000000e+05
    5.0799478777e-03    1.0120000000e+05
    5.0899381749e-03    1.0120000000e+05
    5.0999266095e-03    1.0120000000e+05
    5.1099155098e-03    1.0120000000e+05
    5.1199053414e-03    1.0120000000e+05
    5.1298900507e-03    1.0120000000e+05
    5.1398733631e-03    1.0120000000e+05
    5.1498645917e-03    1.0120000000e+05
    5.1598502323e-03    1.0120000000e+05
    5.1698279567e-03    1.0120000000e+05
    5.1798215136e-03    1.0120000000e+05
    5.1898271777e-03    1.0120000000e+05
    5.1998207346e-03    1.0120000000e+05
    5.2098222077e-03    1.0120000000e+05
    5.2198502235e-03    1.0120000000e+05
    5.2298703231e-03    1.0120000000e+05
    5.2398946136e-03    1.0120000000e+05
    5.2499431185e-03    1.0120000000e+05
    5.2599958144e-03    1.0120000000e+05
    5.2698049694e-03    1.0120000000e+05
    5.2798748948e-03    1.0120000000e+05
    5.2899634466e-03    1.0120000000e+05
    5.2998028696e-03    1.0120000000e+05
    5.3098872304e-03    1.0120000000e+05
    5.3199972026e-03    1.0120000000e+05
    5.3298710845e-03    1.0120000000e+05
    5.3399819881e-03    1.0120000000e+05
    5.3498661146e-03    1.0120000000e+05
    5.3597688675e-03    1.0120000000e+05
    5.3699142300e-03    1.0120000000e+05
    5.3798197769e-03    1.0120000000e+05
    5.3899795748e-03    1.0120000000e+05
    5.3999079391e-03    1.0120000000e+05
    5.4098428227e-03    1.0120000000e+05
    5.4197842255e-03    1.0120000000e+05
    5.4299775511e-03    1.0120000000e+05
    5.4399343207e-03    1.0120000000e+05
    5.4499013349e-03    1.0120000000e+05
    5.4598730057e-03    1.0120000000e+05
    5.4698493332e-03    1.0120000000e+05
    5.4798340425e-03    1.0120000000e+05
    5.4898313247e-03    1.0120000000e+05
    5.4998351261e-03    1.0120000000e+05
    5.5098361336e-03    1.0120000000e+05
    5.5198492482e-03    1.0120000000e+05
    5.5298730731e-03    1.0120000000e+05
    5.5399043486e-03    1.0120000000e+05
    5.5499370210e-03    1.0120000000e+05
    5.5599785410e-03    1.0120000000e+05
    5.5697839707e-03    1.0120000000e+05
    5.5798380636e-03    1.0120000000e+05
    5.5898958817e-03    1.0120000000e+05
    5.5999564938e-03    1.0120000000e+05
    5.6097875349e-03    1.0120000000e+05
    5.6198686361e-03    1.0120000000e+05
    5.6299539283e-03    1.0120000000e+05
    5.6397961453e-03    1.0120000000e+05
    5.6498912163e-03    1.0120000000e+05
    5.6599983945e-03    1.0120000000e+05
    5.6698601693e-03    1.0120000000e+05
    5.6799752638e-03    1.0120000000e+05
    5.6898444891e-03    1.0120000000e+05
    5.6999735534e-03    1.0120000000e+05
    5.7098562829e-03    1.0120000000e+05
    5.7199900039e-03    1.0120000000e+05
    5.7298862375e-03    1.0120000000e+05
    5.7397843339e-03    1.0120000000e+05
    5.7499441318e-03    1.0120000000e+05
    5.7598487474e-03    1.0120000000e+05
    5.7697659358e-03    1.0120000000e+05
    5.7799359784e-03    1.0120000000e+05
    5.7898634113e-03    1.0120000000e+05
    5.7997955009e-03    1.0120000000e+05
    5.8099702001e-03    1.0120000000e+05
    5.8199143969e-03    1.0120000000e+05
    5.8298590593e-03    1.0120000000e+05
    5.8398139663e-03    1.0120000000e+05
    5.8497642167e-03    1.0120000000e+05
    5.8599668555e-03    1.0120000000e+05
    5.8699334040e-03    1.0120000000e+05
    5.8799004182e-03    1.0120000000e+05
    5.8898781426e-03    1.0120000000e+05
    5.8998446912e-03    1.0120000000e+05
    5.9098275378e-03    1.0120000000e+05
    5.9198117815e-03    1.0120000000e+05
    5.9298006818e-03    1.0120000000e+05
    5.9397965670e-03    1.0120000000e+05
    5.9497840703e-03    1.0120000000e+05
    5.9597915970e-03    1.0120000000e+05
    5.9697912075e-03    1.0120000000e+05
    5.9798019938e-03    1.0120000000e+05
    5.9898137115e-03    1.0120000000e+05
    5.9998258948e-03    1.0120000000e+05
    6.0098501854e-03    1.0120000000e+05
    6.0198660940e-03    1.0120000000e+05
    6.0298983008e-03    1.0120000000e+05
    6.0399323702e-03    1.0120000000e+05
    6.0499706306e-03    1.0120000000e+05
    6.0597560368e-03    1.0120000000e+05
    6.0697863810e-03    1.0120000000e+05
    6.0798344202e-03    1.0120000000e+05
    6.0898861848e-03    1.0120000000e+05
    6.0999463312e-03    1.0120000000e+05
    6.1097545549e-03    1.0120000000e+05
    6.1198119074e-03    1.0120000000e+05
    6.1298664659e-03    1.0120000000e+05
    6.1399186961e-03    1.0120000000e+05
    6.1499732547e-03    1.0120000000e+05
    6.1597833410e-03    1.0120000000e+05
    6.1698523350e-03    1.0120000000e+05
    6.1799180694e-03    1.0120000000e+05
    6.1899814755e-03    1.0120000000e+05
    6.1997915618e-03    1.0120000000e+05
    6.2098531052e-03    1.0120000000e+05
    6.2199123204e-03    1.0120000000e+05
    6.2299724668e-03    1.0120000000e+05
    6.2397853471e-03    1.0120000000e+05
    6.2498557381e-03    1.0120000000e+05
    6.2599293888e-03    1.0120000000e+05
    6.2697492540e-03    1.0120000000e+05
    6.2798196450e-03    1.0120000000e+05
    6.2898891047e-03    1.0120000000e+05
    6.2999576330e-03    1.0120000000e+05
    6.3097737730e-03    1.0120000000e+05
    6.3198418356e-03    1.0120000000e+05
    6.3299108297e-03    1.0120000000e+05
    6.3399798237e-03    1.0120000000e+05
    6.3497973606e-03    1.0120000000e+05
    6.3598658890e-03    1.0120000000e+05
    6.3699339516e-03    1.0120000000e+05
    6.3797505572e-03    1.0120000000e+05
    6.3898186199e-03    1.0120000000e+05
    6.3998862170e-03    1.0120000000e+05
    6.4099538140e-03    1.0120000000e+05
    6.4197690226e-03    1.0120000000e+05
    6.4298356883e-03    1.0120000000e+05
    6.4399023540e-03    1.0120000000e+05
    6.4499685541e-03    1.0120000000e+05
    6.4597828314e-03    1.0120000000e+05
    6.4698485658e-03    1.0120000000e+05
    6.4799133688e-03    1.0120000000e+05
    6.4899781719e-03    1.0120000000e+05
    6.4997910522e-03    1.0120000000e+05
    6.5098549239e-03    1.0120000000e+05
    6.5199187957e-03    1.0120000000e+05
    6.5299826674e-03    1.0120000000e+05
    6.5397955477e-03    1.0120000000e+05
    6.5498603508e-03    1.0120000000e+05
    6.5599265508e-03    1.0120000000e+05
    6.5699941479e-03    1.0120000000e+05
    6.5798093565e-03    1.0120000000e+05
    6.5898750909e-03    1.0120000000e+05
    6.5999394283e-03    1.0120000000e+05
    6.6097509116e-03    1.0120000000e+05
    6.6198138520e-03    1.0120000000e+05
    6.6298758611e-03    1.0120000000e+05
    6.6399401985e-03    1.0120000000e+05
    6.6497577354e-03    1.0120000000e+05
    6.6598290578e-03    1.0120000000e+05
    6.6698989831e-03    1.0120000000e+05
    6.6799684428e-03    1.0120000000e+05
    6.6897850484e-03    1.0120000000e+05
    6.6998526454e-03    1.0120000000e+05
    6.7099197768e-03    1.0120000000e+05
    6.7199869081e-03    1.0120000000e+05
    6.7298058420e-03    1.0120000000e+05
    6.7398799583e-03    1.0120000000e+05
    6.7499522120e-03    1.0120000000e+05
    6.7597716115e-03    1.0120000000e+05
    6.7698424682e-03    1.0120000000e+05
    6.7799119279e-03    1.0120000000e+05
    6.7899851128e-03    1.0120000000e+05
    6.7998105660e-03    1.0120000000e+05
    6.8098870106e-03    1.0120000000e+05
    6.8199625239e-03    1.0120000000e+05
    6.8297851831e-03    1.0120000000e+05
    6.8398592994e-03    1.0120000000e+05
    6.8499366753e-03    1.0120000000e+05
    6.8597649224e-03    1.0120000000e+05
    6.8698436953e-03    1.0120000000e+05
    6.8799215369e-03    1.0120000000e+05
    6.8899984471e-03    1.0120000000e+05
    6.8998257630e-03    1.0120000000e+05
    6.9099082612e-03    1.0120000000e+05
    6.9199893624e-03    1.0120000000e+05
    6.9298180752e-03    1.0120000000e+05
    6.9398977794e-03    1.0120000000e+05
    6.9499802776e-03    1.0120000000e+05
    6.9598127156e-03    1.0120000000e+05
    6.9698961452e-03    1.0120000000e+05
    6.9799791090e-03    1.0120000000e+05
    6.9898092188e-03    1.0120000000e+05
    6.9998945110e-03    1.0120000000e+05
    7.0099798031e-03    1.0120000000e+05
    7.0198122412e-03    1.0120000000e+05
    7.0298961364e-03    1.0120000000e+05
    7.0399814285e-03    1.0120000000e+05
    7.0498152636e-03    1.0120000000e+05
    7.0599005558e-03    1.0120000000e+05
    7.0699858479e-03    1.0120000000e+05
    7.0798192173e-03    1.0120000000e+05
    7.0899059065e-03    1.0120000000e+05
    7.0999916643e-03    1.0120000000e+05
    7.1098254994e-03    1.0120000000e+05
    7.1199112572e-03    1.0120000000e+05
    7.1299979463e-03    1.0120000000e+05
    7.1398317814e-03    1.0120000000e+05
    7.1499175392e-03    1.0120000000e+05
    7.1597513743e-03    1.0120000000e+05
    7.1698371321e-03    1.0120000000e+05
    7.1799228899e-03    1.0120000000e+05
    7.1897562593e-03    1.0120000000e+05
    7.1998415515e-03    1.0120000000e+05
    7.2099268436e-03    1.0120000000e+05
    7.2197597474e-03    1.0120000000e+05
    7.2298445739e-03    1.0120000000e+05
    7.2399289347e-03    1.0120000000e+05
    7.2497613728e-03    1.0120000000e+05
    7.2598457336e-03    1.0120000000e+05
    7.2699296288e-03    1.0120000000e+05
    7.2797616012e-03    1.0120000000e+05
    7.2898450308e-03    1.0120000000e+05
    7.2999284603e-03    1.0120000000e+05
    7.3097595014e-03    1.0120000000e+05
    7.3198433965e-03    1.0120000000e+05
    7.3299268261e-03    1.0120000000e+05
    7.3397587985e-03    1.0120000000e+05
    7.3498431593e-03    1.0120000000e+05
    7.3599270545e-03    1.0120000000e+05
    7.3697590269e-03    1.0120000000e+05
    7.3798447847e-03    1.0120000000e+05
    7.3899342678e-03    1.0120000000e+05
    7.3997741565e-03    1.0120000000e+05
    7.4098678306e-03    1.0120000000e+05
    7.4199605733e-03    1.0120000000e+05
    7.4298009276e-03    1.0120000000e+05
    7.4398932047e-03    1.0120000000e+05
    7.4499845505e-03    1.0120000000e+05
    7.4598239735e-03    1.0120000000e+05
    7.4699153192e-03    1.0120000000e+05
    7.4797547422e-03    1.0120000000e+05
    7.4898465537e-03    1.0120000000e+05
    7.4999374337e-03    1.0120000000e+05
    7.5097759254e-03    1.0120000000e+05
    7.5198686682e-03    1.0120000000e+05
    7.5299632736e-03    1.0120000000e+05
    7.5398059562e-03    1.0120000000e+05
    7.5498991646e-03    1.0120000000e+05
    7.5599956326e-03    1.0120000000e+05
    7.5698448345e-03    1.0120000000e+05
    7.5799515471e-03    1.0120000000e+05
    7.5898049399e-03    1.0120000000e+05
    7.5999088585e-03    1.0120000000e+05
    7.6097645797e-03    1.0120000000e+05
    7.6198847964e-03    1.0120000000e+05
    7.6297577471e-03    1.0120000000e+05
    7.6398835517e-03    1.0120000000e+05
    7.6497634873e-03    1.0120000000e+05
    7.6599088497e-03    1.0120000000e+05
    7.6698111370e-03    1.0120000000e+05
    7.6799700037e-03    1.0120000000e+05
    7.6898746192e-03    1.0120000000e+05
    7.6997783035e-03    1.0120000000e+05
    7.7099353075e-03    1.0120000000e+05
    7.7198394574e-03    1.0120000000e+05
    7.7299987897e-03    1.0120000000e+05
    7.7399052680e-03    1.0120000000e+05
    7.7498150058e-03    1.0120000000e+05
    7.7599789947e-03    1.0120000000e+05
    7.7698882669e-03    1.0120000000e+05
    7.7797970735e-03    1.0120000000e+05
    7.7899591997e-03    1.0120000000e+05
    7.7998684719e-03    1.0120000000e+05
    7.8097786754e-03    1.0120000000e+05
    7.8199440613e-03    1.0120000000e+05
    7.8298542649e-03    1.0120000000e+05
    7.8397653997e-03    1.0120000000e+05
    7.8499326482e-03    1.0120000000e+05
    7.8598493710e-03    1.0120000000e+05
    7.8697679564e-03    1.0120000000e+05
    7.8799389303e-03    1.0120000000e+05
    7.8898603097e-03    1.0120000000e+05
    7.8997928649e-03    1.0120000000e+05
    7.9099833965e-03    1.0120000000e+05
    7.9199187458e-03    1.0120000000e+05
    7.9298550263e-03    1.0120000000e+05
    7.9398015514e-03    1.0120000000e+05
    7.9497620463e-03    1.0120000000e+05
    7.9599786550e-03    1.0120000000e+05
    7.9699428752e-03    1.0120000000e+05
    7.9799117520e-03    1.0120000000e+05
    7.9898908734e-03    1.0120000000e+05
    7.9998811707e-03    1.0120000000e+05
    8.0098696053e-03    1.0120000000e+05
    8.0198645592e-03    1.0120000000e+05
    8.0298697576e-03    1.0120000000e+05
    8.0398814753e-03    1.0120000000e+05
    8.0498987809e-03    1.0120000000e+05
    8.0599142238e-03    1.0120000000e+05
    8.0699399114e-03    1.0120000000e+05
    8.0799795687e-03    1.0120000000e+05
    8.0897668377e-03    1.0120000000e+05
    8.0998102203e-03    1.0120000000e+05
    8.1098536029e-03    1.0120000000e+05
    8.1199109554e-03    1.0120000000e+05
    8.1299794838e-03    1.0120000000e+05
    8.1397965550e-03    1.0120000000e+05
    8.1498669460e-03    1.0120000000e+05
    8.1599336118e-03    1.0120000000e+05
    8.1697562709e-03    1.0120000000e+05
    8.1798518077e-03    1.0120000000e+05
    8.1899529323e-03    1.0120000000e+05
    8.1997942179e-03    1.0120000000e+05
    8.2098934799e-03    1.0120000000e+05
    8.2199955359e-03    1.0120000000e+05
    8.2298535854e-03    1.0120000000e+05
    8.2399789244e-03    1.0120000000e+05
    8.2498444244e-03    1.0120000000e+05
    8.2599697635e-03    1.0120000000e+05
    8.2698399201e-03    1.0120000000e+05
    8.2799782977e-03    1.0120000000e+05
    8.2898642868e-03    1.0120000000e+05
    8.2997567952e-03    1.0120000000e+05
    8.3099091426e-03    1.0120000000e+05
    8.3198063076e-03    1.0120000000e+05
    8.3299670368e-03    1.0120000000e+05
    8.3398725837e-03    1.0120000000e+05
    8.3497902378e-03    1.0120000000e+05
    8.3599695936e-03    1.0120000000e+05
    8.3698881790e-03    1.0120000000e+05
    8.3798104897e-03    1.0120000000e+05
    8.3897383884e-03    1.0120000000e+05
    8.3999363706e-03    1.0120000000e+05
    8.4098828956e-03    1.0120000000e+05
    8.4198256955e-03    1.0120000000e+05
    8.4297657013e-03    1.0120000000e+05
    8.4399804473e-03    1.0120000000e+05
    8.4499390796e-03    1.0120000000e+05
    8.4599051625e-03    1.0120000000e+05
    8.4698759019e-03    1.0120000000e+05
    8.4798382595e-03    1.0120000000e+05
    8.4898043424e-03    1.0120000000e+05
    8.4997834638e-03    1.0120000000e+05
    8.5097700357e-03    1.0120000000e+05
    8.5197631270e-03    1.0120000000e+05
    8.5297580808e-03    1.0120000000e+05
    8.5397465155e-03    1.0120000000e+05
    8.5499994457e-03    1.0120000000e+05
    8.5597448051e-03    1.0120000000e+05
    8.5697583854e-03    1.0120000000e+05
    8.5797738284e-03    1.0120000000e+05
    8.5897911340e-03    1.0120000000e+05
    8.5997981951e-03    1.0120000000e+05
    8.6098155007e-03    1.0120000000e+05
    8.6198467761e-03    1.0120000000e+05
    8.6298845708e-03    1.0120000000e+05
    8.6399242282e-03    1.0120000000e+05
    8.6499629542e-03    1.0120000000e+05
    8.6599970236e-03    1.0120000000e+05
    8.6697703227e-03    1.0120000000e+05
    8.6798286065e-03    1.0120000000e+05
    8.6898859590e-03    1.0120000000e+05
    8.6999433115e-03    1.0120000000e+05
    8.7097417563e-03    1.0120000000e+05
    8.7197991088e-03    1.0120000000e+05
    8.7298629805e-03    1.0120000000e+05
    8.7399426848e-03    1.0120000000e+05
    8.7497523054e-03    1.0120000000e+05
    8.7598329410e-03    1.0120000000e+05
    8.7699191645e-03    1.0120000000e+05
    8.7797390297e-03    1.0120000000e+05
    8.7898261845e-03    1.0120000000e+05
    8.7999263778e-03    1.0120000000e+05
    8.8097602129e-03    1.0120000000e+05
    8.8198576123e-03    1.0120000000e+05
    8.8299699128e-03    1.0120000000e+05
    8.8398158550e-03    1.0120000000e+05
    8.8499300182e-03    1.0120000000e+05
    8.8597852737e-03    1.0120000000e+05
    8.8698994368e-03    1.0120000000e+05
    8.8797556236e-03    1.0120000000e+05
    8.8898930699e-03    1.0120000000e+05
    8.8997641578e-03    1.0120000000e+05
    8.9098988101e-03    1.0120000000e+05
    8.9197717607e-03    1.0120000000e+05
    8.9299073443e-03    1.0120000000e+05
    8.9397775009e-03    1.0120000000e+05
    8.9499298483e-03    1.0120000000e+05
    8.9598242193e-03    1.0120000000e+05
    8.9699849486e-03    1.0120000000e+05
    8.9798821136e-03    1.0120000000e+05
    8.9897727594e-03    1.0120000000e+05
    8.9999344200e-03    1.0120000000e+05
    9.0098427609e-03    1.0120000000e+05
    9.0197548270e-03    1.0120000000e+05
    9.0299304575e-03    1.0120000000e+05
    9.0398406610e-03    1.0120000000e+05
    9.0497490019e-03    1.0120000000e+05
    9.0599255636e-03    1.0120000000e+05
    9.0698469430e-03    1.0120000000e+05
    9.0797767043e-03    1.0120000000e+05
    9.0899802744e-03    1.0120000000e+05
    9.0999156237e-03    1.0120000000e+05
    9.1098453850e-03    1.0120000000e+05
    9.1197714210e-03    1.0120000000e+05
    9.1299805790e-03    1.0120000000e+05
    9.1399289668e-03    1.0120000000e+05
    9.1498773545e-03    1.0120000000e+05
    9.1598303989e-03    1.0120000000e+05
    9.1697862372e-03    1.0120000000e+05
    9.1797420755e-03    1.0120000000e+05
    9.1899633408e-03    1.0120000000e+05
    9.1999210417e-03    1.0120000000e+05
    9.2098880559e-03    1.0120000000e+05
    9.2198625207e-03    1.0120000000e+05
    9.2298369855e-03    1.0120000000e+05
    9.2398095876e-03    1.0120000000e+05
    9.2497868463e-03    1.0120000000e+05
    9.2597687617e-03    1.0120000000e+05
    9.2697497457e-03    1.0120000000e+05
    9.2797353864e-03    1.0120000000e+05
    9.2897303402e-03    1.0120000000e+05
    9.2997299507e-03    1.0120000000e+05
    9.3099987134e-03    1.0120000000e+05
    9.3199964613e-03    1.0120000000e+05
    9.3297297135e-03    1.0120000000e+05
    9.3397377059e-03    1.0120000000e+05
    9.3497475609e-03    1.0120000000e+05
    9.3597555533e-03    1.0120000000e+05
    9.3697700649e-03    1.0120000000e+05
    9.3797920272e-03    1.0120000000e+05
    9.3898158520e-03    1.0120000000e+05
    9.3998387456e-03    1.0120000000e+05
    9.4098672271e-03    1.0120000000e+05
    9.4199031591e-03    1.0120000000e+05
    9.4299390912e-03    1.0120000000e+05
    9.4399740919e-03    1.0120000000e+05
    9.4497418031e-03    1.0120000000e+05
    9.4597879797e-03    1.0120000000e+05
    9.4698360190e-03    1.0120000000e+05
    9.4798821956e-03    1.0120000000e+05
    9.4899330288e-03    1.0120000000e+05
    9.4999913126e-03    1.0120000000e+05
    9.5097795129e-03    1.0120000000e+05
    9.5198387280e-03    1.0120000000e+05
    9.5299016684e-03    1.0120000000e+05
    9.5399739221e-03    1.0120000000e+05
    9.5497751608e-03    1.0120000000e+05
    9.5598474145e-03    1.0120000000e+05
    9.5699224621e-03    1.0120000000e+05
    9.5797320828e-03    1.0120000000e+05
    9.5898183063e-03    1.0120000000e+05
    9.5999035984e-03    1.0120000000e+05
    9.6099916846e-03    1.0120000000e+05
    9.6198134124e-03    1.0120000000e+05
    9.6299145371e-03    1.0120000000e+05
    9.6397371963e-03    1.0120000000e+05
    9.6498364583e-03    1.0120000000e+05
    9.6599431708e-03    1.0120000000e+05
    9.6697816625e-03    1.0120000000e+05
    9.6798948944e-03    1.0120000000e+05
    9.6897333860e-03    1.0120000000e+05
    9.6998522058e-03    1.0120000000e+05
    9.7099775448e-03    1.0120000000e+05
    9.7198281437e-03    1.0120000000e+05
    9.7299516201e-03    1.0120000000e+05
    9.7398078069e-03    1.0120000000e+05
    9.7499461845e-03    1.0120000000e+05
    9.7598116845e-03    1.0120000000e+05
    9.7699509934e-03    1.0120000000e+05
    9.7798202187e-03    1.0120000000e+05
    9.7899716347e-03    1.0120000000e+05
    9.7998501733e-03    1.0120000000e+05
    9.8097259179e-03    1.0120000000e+05
    9.8198801279e-03    1.0120000000e+05
    9.8297689110e-03    1.0120000000e+05
    9.8399370909e-03    1.0120000000e+05
    9.8498277366e-03    1.0120000000e+05
    9.8599977791e-03    1.0120000000e+05
    9.8699005321e-03    1.0120000000e+05
    9.8798070103e-03    1.0120000000e+05
    9.8899854347e-03    1.0120000000e+05
    9.8998900503e-03    1.0120000000e+05
    9.9098039791e-03    1.0120000000e+05
    9.9197253585e-03    1.0120000000e+05
    9.9299205467e-03    1.0120000000e+05
    9.9398409948e-03    1.0120000000e+05
    9.9497698247e-03    1.0120000000e+05
    9.9599799141e-03    1.0120000000e+05
    9.9699124694e-03    1.0120000000e+05
    9.9798450246e-03    1.0120000000e+05
    9.9897850305e-03    1.0120000000e+05
    9.9997362122e-03    1.0120000000e+05
    1.0009965859e-02    1.0120000000e+05
    1.0019917972e-02    1.0120000000e+05
    1.0029873811e-02    1.0120000000e+05
    1.0039834306e-02    1.0120000000e+05
    1.0049792938e-02    1.0120000000e+05
    1.0059745982e-02    1.0120000000e+05
    1.0069984943e-02    1.0120000000e+05
    1.0079960339e-02    1.0120000000e+05
    1.0089942254e-02    1.0120000000e+05
    1.0099928826e-02    1.0120000000e+05
    1.0109920055e-02    1.0120000000e+05
    1.0119912215e-02    1.0120000000e+05
    1.0129904374e-02    1.0120000000e+05
    1.0139894672e-02    1.0120000000e+05
    1.0149884969e-02    1.0120000000e+05
    1.0159873404e-02    1.0120000000e+05
    1.0169860907e-02    1.0120000000e+05
    1.0179848410e-02    1.0120000000e+05
    1.0189835913e-02    1.0120000000e+05
    1.0199823417e-02    1.0120000000e+05
    1.0209811851e-02    1.0120000000e+05
    1.0219799355e-02    1.0120000000e+05
    1.0229784064e-02    1.0120000000e+05
    1.0239772499e-02    1.0120000000e+05
    1.0249764659e-02    1.0120000000e+05
    1.0259760544e-02    1.0120000000e+05
    1.0269756429e-02    1.0120000000e+05
    1.0279752314e-02    1.0120000000e+05
    1.0289746337e-02    1.0120000000e+05
    1.0299740359e-02    1.0120000000e+05
    1.0309731588e-02    1.0120000000e+05
    1.0319999419e-02    1.0120000000e+05
    1.0329990648e-02    1.0120000000e+05
    1.0339982808e-02    1.0120000000e+05
    1.0349975899e-02    1.0120000000e+05
    1.0359970853e-02    1.0120000000e+05
    1.0369965807e-02    1.0120000000e+05
    1.0379959829e-02    1.0120000000e+05
    1.0389953852e-02    1.0120000000e+05
    1.0399946012e-02    1.0120000000e+05
    1.0409937240e-02    1.0120000000e+05
    1.0419928469e-02    1.0120000000e+05
    1.0429918766e-02    1.0120000000e+05
    1.0439909063e-02    1.0120000000e+05
    1.0449900292e-02    1.0120000000e+05
    1.0459891520e-02    1.0120000000e+05
    1.0469882749e-02    1.0120000000e+05
    1.0479872115e-02    1.0120000000e+05
    1.0489860550e-02    1.0120000000e+05
    1.0499848053e-02    1.0120000000e+05
    1.0509835556e-02    1.0120000000e+05
    1.0519823059e-02    1.0120000000e+05
    1.0529811494e-02    1.0120000000e+05
    1.0539799929e-02    1.0120000000e+05
    1.0549786501e-02    1.0120000000e+05
    1.0559773073e-02    1.0120000000e+05
    1.0569757782e-02    1.0120000000e+05
    1.0579742491e-02    1.0120000000e+05
    1.0589727201e-02    1.0120000000e+05
    1.0599990375e-02    1.0120000000e+05
    1.0609976016e-02    1.0120000000e+05
    1.0619961657e-02    1.0120000000e+05
    1.0629946366e-02    1.0120000000e+05
    1.0639929213e-02    1.0120000000e+05
    1.0649912991e-02    1.0120000000e+05
    1.0659897700e-02    1.0120000000e+05
    1.0669887997e-02    1.0120000000e+05
    1.0679878294e-02    1.0120000000e+05
    1.0689871386e-02    1.0120000000e+05
    1.0699861683e-02    1.0120000000e+05
    1.0709851980e-02    1.0120000000e+05
    1.0719844140e-02    1.0120000000e+05
    1.0729840957e-02    1.0120000000e+05
    1.0739843361e-02    1.0120000000e+05
    1.0749850422e-02    1.0120000000e+05
    1.0759861208e-02    1.0120000000e+05
    1.0769872926e-02    1.0120000000e+05
    1.0779883713e-02    1.0120000000e+05
    1.0789892636e-02    1.0120000000e+05
    1.0799900629e-02    1.0120000000e+05
    1.0809906758e-02    1.0120000000e+05
    1.0819911957e-02    1.0120000000e+05
    1.0829917155e-02    1.0120000000e+05
    1.0839924216e-02    1.0120000000e+05
    1.0849933140e-02    1.0120000000e+05
    1.0859944858e-02    1.0120000000e+05
    1.0869958438e-02    1.0120000000e+05
    1.0879970156e-02    1.0120000000e+05
    1.0889981873e-02    1.0120000000e+05
    1.0899991728e-02    1.0120000000e+05
    1.0909723118e-02    1.0120000000e+05
    1.0919731110e-02    1.0120000000e+05
    1.0929739103e-02    1.0120000000e+05
    1.0939747095e-02    1.0120000000e+05
    1.0949753225e-02    1.0120000000e+05
    1.0959759355e-02    1.0120000000e+05
    1.0969765484e-02    1.0120000000e+05
    1.0979769751e-02    1.0120000000e+05
    1.0989774019e-02    1.0120000000e+05
    1.0999777354e-02    1.0120000000e+05
    1.1009780690e-02    1.0120000000e+05
    1.1019783095e-02    1.0120000000e+05
    1.1029785499e-02    1.0120000000e+05
    1.1039787903e-02    1.0120000000e+05
    1.1049789377e-02    1.0120000000e+05
    1.1059790850e-02    1.0120000000e+05
    1.1069791391e-02    1.0120000000e+05
    1.1079791002e-02    1.0120000000e+05
    1.1089789681e-02    1.0120000000e+05
    1.1099788360e-02    1.0120000000e+05
    1.1109786108e-02    1.0120000000e+05
    1.1119783856e-02    1.0120000000e+05
    1.1129782535e-02    1.0120000000e+05
    1.1139781214e-02    1.0120000000e+05
    1.1149780825e-02    1.0120000000e+05
    1.1159780435e-02    1.0120000000e+05
    1.1169780977e-02    1.0120000000e+05
    1.1179784313e-02    1.0120000000e+05
    1.1189788580e-02    1.0120000000e+05
    1.1199793778e-02    1.0120000000e+05
    1.1209799908e-02    1.0120000000e+05
    1.1219809763e-02    1.0120000000e+05
    1.1229828931e-02    1.0120000000e+05
    1.1239851825e-02    1.0120000000e+05
    1.1249876581e-02    1.0120000000e+05
    1.1259906925e-02    1.0120000000e+05
    1.1269938201e-02    1.0120000000e+05
    1.1279975064e-02    1.0120000000e+05
    1.1289749295e-02    1.0120000000e+05
    1.1299816892e-02    1.0120000000e+05
    1.1309907772e-02    1.0120000000e+05
    1.1319748126e-02    1.0120000000e+05
    1.1329905130e-02    1.0120000000e+05
    1.1339819059e-02    1.0120000000e+05
    1.1349773034e-02    1.0120000000e+05
    1.1359765194e-02    1.0120000000e+05
    1.1369793676e-02    1.0120000000e+05
    1.1379852891e-02    1.0120000000e+05
    1.1389940977e-02    1.0120000000e+05
    1.1399763636e-02    1.0120000000e+05
    1.1409892701e-02    1.0120000000e+05
    1.1419749819e-02    1.0120000000e+05
    1.1429914273e-02    1.0120000000e+05
    1.1439807713e-02    1.0120000000e+05
    1.1449727230e-02    1.0120000000e+05
    1.1459968984e-02    1.0120000000e+05
    1.1469949968e-02    1.0120000000e+05
    1.1479964480e-02    1.0120000000e+05
    1.1489712633e-02    1.0120000000e+05
    1.1499778368e-02    1.0120000000e+05
    1.1509861797e-02    1.0120000000e+05
    1.1519956402e-02    1.0120000000e+05
    1.1529760435e-02    1.0120000000e+05
    1.1539866216e-02    1.0120000000e+05
    1.1549976654e-02    1.0120000000e+05
    1.1559800245e-02    1.0120000000e+05
    1.1569937691e-02    1.0120000000e+05
    1.1579796672e-02    1.0120000000e+05
    1.1589980684e-02    1.0120000000e+05
    1.1599889025e-02    1.0120000000e+05
    1.1609820649e-02    1.0120000000e+05
    1.1619770899e-02    1.0120000000e+05
    1.1629735120e-02    1.0120000000e+05
    1.1639713310e-02    1.0120000000e+05
    1.1649720371e-02    1.0120000000e+05
    1.1659784243e-02    1.0120000000e+05
    1.1669952422e-02    1.0120000000e+05
    1.1679960415e-02    1.0120000000e+05
    1.1689829640e-02    1.0120000000e+05
    1.1699887924e-02    1.0120000000e+05
    1.1709812097e-02    1.0120000000e+05
    1.1719925329e-02    1.0120000000e+05
    1.1729880236e-02    1.0120000000e+05
    1.1739656329e-02    1.0120000000e+05
    1.1749948375e-02    1.0120000000e+05
    1.1759680696e-02    1.0120000000e+05
    1.1769924313e-02    1.0120000000e+05
    1.1779946275e-02    1.0120000000e+05
    1.1789728887e-02    1.0120000000e+05
    1.1799638160e-02    1.0120000000e+05
    1.1809675023e-02    1.0120000000e+05
    1.1819836684e-02    1.0120000000e+05
    1.1829726398e-02    1.0120000000e+05
    1.1839729734e-02    1.0120000000e+05
    1.1849848554e-02    1.0120000000e+05
    1.1859670281e-02    1.0120000000e+05
    1.1869596317e-02    1.0120000000e+05
    1.1879626662e-02    1.0120000000e+05
    1.1889760382e-02    1.0120000000e+05
    1.1899984442e-02    1.0120000000e+05
    1.1909877881e-02    1.0120000000e+05
    1.1919870973e-02    1.0120000000e+05
    1.1929964647e-02    1.0120000000e+05
    1.1939709075e-02    1.0120000000e+05
    1.1949989945e-02    1.0120000000e+05
    1.1959902942e-02    1.0120000000e+05
    1.1969879270e-02    1.0120000000e+05
    1.1979909614e-02    1.0120000000e+05
    1.1989980936e-02    1.0120000000e+05
    1.1999621987e-02    1.0120000000e+05
    1.2009744532e-02    1.0120000000e+05
    1.2019900605e-02    1.0120000000e+05
    1.2029619887e-02    1.0120000000e+05
    1.2039855123e-02    1.0120000000e+05
    1.2049674056e-02    1.0120000000e+05
    1.2059985660e-02    1.0120000000e+05
    1.2069871649e-02    1.0120000000e+05
    1.2079797685e-02    1.0120000000e+05
    1.2089768425e-02    1.0120000000e+05
    1.2099760585e-02    1.0120000000e+05
    1.2109820731e-02    1.0120000000e+05
    1.2119914405e-02    1.0120000000e+05
    1.2129557319e-02    1.0120000000e+05
    1.2139705941e-02    1.0120000000e+05
    1.2149917893e-02    1.0120000000e+05
    1.2159674428e-02    1.0120000000e+05
    1.2169936672e-02    1.0120000000e+05
    1.2179781683e-02    1.0120000000e+05
    1.2189618312e-02    1.0120000000e+05
    1.2199518271e-02    1.0120000000e+05
    1.2209947221e-02    1.0120000000e+05
    1.2219890021e-02    1.0120000000e+05
    1.2229922228e-02    1.0120000000e+05
    1.2239940464e-02    1.0120000000e+05
    1.2249992229e-02    1.0120000000e+05
    1.2259568088e-02    1.0120000000e+05
    1.2269656174e-02    1.0120000000e+05
    1.2279833667e-02    1.0120000000e+05
    1.2289545499e-02    1.0120000000e+05
    1.2299755588e-02    1.0120000000e+05
    1.2309986167e-02    1.0120000000e+05
    1.2319787405e-02    1.0120000000e+05
    1.2329582125e-02    1.0120000000e+05
    1.2339934707e-02    1.0120000000e+05
    1.2349806726e-02    1.0120000000e+05
    1.2359688058e-02    1.0120000000e+05
    1.2369648553e-02    1.0120000000e+05
    1.2379593216e-02    1.0120000000e+05
    1.2389580719e-02    1.0120000000e+05
    1.2399550527e-02    1.0120000000e+05
    1.2409498915e-02    1.0120000000e+05
    1.2419517152e-02    1.0120000000e+05
    1.2429569848e-02    1.0120000000e+05
    1.2439659797e-02    1.0120000000e+05
    1.2449757196e-02    1.0120000000e+05
    1.2459904887e-02    1.0120000000e+05
    1.2469531037e-02    1.0120000000e+05
    1.2479679659e-02    1.0120000000e+05
    1.2489914894e-02    1.0120000000e+05
    1.2499550357e-02    1.0120000000e+05
    1.2509833090e-02    1.0120000000e+05
    1.2519515119e-02    1.0120000000e+05
    1.2529837899e-02    1.0120000000e+05
    1.2539553456e-02    1.0120000000e+05
    1.2549854815e-02    1.0120000000e+05
    1.2559669092e-02    1.0120000000e+05
    1.2569977902e-02    1.0120000000e+05
    1.2579672039e-02    1.0120000000e+05
    1.2589841150e-02    1.0120000000e+05
    1.2599823996e-02    1.0120000000e+05
    1.2609591708e-02    1.0120000000e+05
    1.2619568966e-02    1.0120000000e+05
    1.2629706413e-02    1.0120000000e+05
    1.2639962137e-02    1.0120000000e+05
    1.2649860233e-02    1.0120000000e+05
    1.2659838423e-02    1.0120000000e+05
    1.2669859454e-02    1.0120000000e+05
    1.2679886073e-02    1.0120000000e+05
    1.2689879164e-02    1.0120000000e+05
    1.2699800543e-02    1.0120000000e+05
    1.2709949166e-02    1.0120000000e+05
    1.2719907798e-02    1.0120000000e+05
    1.2729933485e-02    1.0120000000e+05
    1.2739920057e-02    1.0120000000e+05
    1.2749752030e-02    1.0120000000e+05
    1.2759780511e-02    1.0120000000e+05
    1.2769942172e-02    1.0120000000e+05
    1.2779849581e-02    1.0120000000e+05
    1.2789967470e-02    1.0120000000e+05
    1.2799988501e-02    1.0120000000e+05
    1.2809996493e-02    1.0120000000e+05
    1.2819908559e-02    1.0120000000e+05
    1.2829965912e-02    1.0120000000e+05
    1.2839861214e-02    1.0120000000e+05
    1.2849836610e-02    1.0120000000e+05
    1.2859930284e-02    1.0120000000e+05
    1.2869829312e-02    1.0120000000e+05
    1.2879976071e-02    1.0120000000e+05
    1.2889823876e-02    1.0120000000e+05
    1.2899920344e-02    1.0120000000e+05
    1.2909843586e-02    1.0120000000e+05
    1.2919986621e-02    1.0120000000e+05
    1.2929908931e-02    1.0120000000e+05
    1.2939974666e-02    1.0120000000e+05
    1.2949942611e-02    1.0120000000e+05
    1.2959807180e-02    1.0120000000e+05
    1.2969963253e-02    1.0120000000e+05
    1.2979977764e-02    1.0120000000e+05
    1.2989831157e-02    1.0120000000e+05
    1.2999964878e-02    1.0120000000e+05
    1.3009917922e-02    1.0120000000e+05
    1.3019920327e-02    1.0120000000e+05
    1.3029952534e-02    1.0120000000e+05
    1.3039804064e-02    1.0120000000e+05
    1.3049911708e-02    1.0120000000e+05
    1.3059824705e-02    1.0120000000e+05
    1.3069770299e-02    1.0120000000e+05
    1.3079966418e-02    1.0120000000e+05
    1.3089974411e-02    1.0120000000e+05
    1.3099981472e-02    1.0120000000e+05
    1.3109808788e-02    1.0120000000e+05
    1.3119863346e-02    1.0120000000e+05
    1.3129966334e-02    1.0120000000e+05
    1.3139830902e-02    1.0120000000e+05
    1.3149964623e-02    1.0120000000e+05
    1.3159886934e-02    1.0120000000e+05
    1.3169803657e-02    1.0120000000e+05
    1.3179771602e-02    1.0120000000e+05
    1.3189970516e-02    1.0120000000e+05
    1.3199971989e-02    1.0120000000e+05
    1.3209980913e-02    1.0120000000e+05
    1.3219789602e-02    1.0120000000e+05
    1.3229837641e-02    1.0120000000e+05
    1.3239908963e-02    1.0120000000e+05
    1.3249768876e-02    1.0120000000e+05
    1.3259871863e-02    1.0120000000e+05
    1.3269996271e-02    1.0120000000e+05
    1.3279904611e-02    1.0120000000e+05
    1.3289826922e-02    1.0120000000e+05
    1.3299995102e-02    1.0120000000e+05
    1.3309950009e-02    1.0120000000e+05
    1.3319918886e-02    1.0120000000e+05
    1.3329889625e-02    1.0120000000e+05
    1.3339882717e-02    1.0120000000e+05
    1.3349896297e-02    1.0120000000e+05
    1.3359908015e-02    1.0120000000e+05
    1.3369932771e-02    1.0120000000e+05
    1.3379987329e-02    1.0120000000e+05
    1.3389794156e-02    1.0120000000e+05
    1.3399851508e-02    1.0120000000e+05
    1.3409938663e-02    1.0120000000e+05
    1.3419785537e-02    1.0120000000e+05
    1.3429874554e-02    1.0120000000e+05
    1.3439989649e-02    1.0120000000e+05
    1.3449873775e-02    1.0120000000e+05
    1.3459991664e-02    1.0120000000e+05
    1.3469885103e-02    1.0120000000e+05
    1.3479803689e-02    1.0120000000e+05
    1.3489962555e-02    1.0120000000e+05
    1.3499881141e-02    1.0120000000e+05
    1.3509828597e-02    1.0120000000e+05
    1.3519778848e-02    1.0120000000e+05
    1.3529968448e-02    1.0120000000e+05
    1.3539932668e-02    1.0120000000e+05
    1.3549911790e-02    1.0120000000e+05
    1.3559874147e-02    1.0120000000e+05
    1.3569855131e-02    1.0120000000e+05
    1.3579862192e-02    1.0120000000e+05
    1.3589863665e-02    1.0120000000e+05
    1.3599871658e-02    1.0120000000e+05
    1.3609901071e-02    1.0120000000e+05
    1.3619936071e-02    1.0120000000e+05
    1.3629963621e-02    1.0120000000e+05
    1.3639759272e-02    1.0120000000e+05
    1.3649823144e-02    1.0120000000e+05
    1.3659880497e-02    1.0120000000e+05
    1.3669949956e-02    1.0120000000e+05
    1.3679780997e-02    1.0120000000e+05
    1.3689870946e-02    1.0120000000e+05
    1.3699960895e-02    1.0120000000e+05
    1.3709811494e-02    1.0120000000e+05
    1.3719926588e-02    1.0120000000e+05
    1.3729786500e-02    1.0120000000e+05
    1.3739912771e-02    1.0120000000e+05
    1.3749795966e-02    1.0120000000e+05
    1.3759933412e-02    1.0120000000e+05
    1.3769824058e-02    1.0120000000e+05
    1.3779979199e-02    1.0120000000e+05
    1.3789888471e-02    1.0120000000e+05
    1.3799798675e-02    1.0120000000e+05
    1.3809970580e-02    1.0120000000e+05
    1.3819899410e-02    1.0120000000e+05
    1.3829831034e-02    1.0120000000e+05
    1.3839767314e-02    1.0120000000e+05
    1.3849965297e-02    1.0120000000e+05
    1.3859916478e-02    1.0120000000e+05
    1.3869871385e-02    1.0120000000e+05
    1.3879833743e-02    1.0120000000e+05
    1.3889798895e-02    1.0120000000e+05
    1.3899772428e-02    1.0120000000e+05
    1.3909746893e-02    1.0120000000e+05
    1.3919988647e-02    1.0120000000e+05
    1.3929978013e-02    1.0120000000e+05
    1.3939969242e-02    1.0120000000e+05
    1.3949969783e-02    1.0120000000e+05
    1.3959974051e-02    1.0120000000e+05
    1.3969984837e-02    1.0120000000e+05
    1.3979996555e-02    1.0120000000e+05
    1.3989755884e-02    1.0120000000e+05
    1.3999778777e-02    1.0120000000e+05
    1.4009805396e-02    1.0120000000e+05
    1.4019836672e-02    1.0120000000e+05
    1.4029871672e-02    1.0120000000e+05
    1.4039906673e-02    1.0120000000e+05
    1.4049951918e-02    1.0120000000e+05
    1.4059998095e-02    1.0120000000e+05
    1.4069792815e-02    1.0120000000e+05
    1.4079850167e-02    1.0120000000e+05
    1.4089908451e-02    1.0120000000e+05
    1.4099972323e-02    1.0120000000e+05
    1.4109777287e-02    1.0120000000e+05
    1.4119839296e-02    1.0120000000e+05
    1.4129910618e-02    1.0120000000e+05
    1.4139981009e-02    1.0120000000e+05
    1.4149800874e-02    1.0120000000e+05
    1.4159883372e-02    1.0120000000e+05
    1.4169968665e-02    1.0120000000e+05
    1.4179798774e-02    1.0120000000e+05
    1.4189886861e-02    1.0120000000e+05
    1.4199974947e-02    1.0120000000e+05
    1.4209804125e-02    1.0120000000e+05
    1.4219890349e-02    1.0120000000e+05
    1.4229977503e-02    1.0120000000e+05
    1.4239804819e-02    1.0120000000e+05
    1.4249891043e-02    1.0120000000e+05
    1.4259979129e-02    1.0120000000e+05
    1.4269809239e-02    1.0120000000e+05
    1.4279898256e-02    1.0120000000e+05
    1.4289989136e-02    1.0120000000e+05
    1.4299822040e-02    1.0120000000e+05
    1.4309913851e-02    1.0120000000e+05
    1.4319747686e-02    1.0120000000e+05
    1.4329840429e-02    1.0120000000e+05
    1.4339932241e-02    1.0120000000e+05
    1.4349766076e-02    1.0120000000e+05
    1.4359857887e-02    1.0120000000e+05
    1.4369950630e-02    1.0120000000e+05
    1.4379784465e-02    1.0120000000e+05
    1.4389877208e-02    1.0120000000e+05
    1.4399970882e-02    1.0120000000e+05
    1.4409806579e-02    1.0120000000e+05
    1.4419902116e-02    1.0120000000e+05
    1.4429997653e-02    1.0120000000e+05
    1.4439834282e-02    1.0120000000e+05
    1.4449930750e-02    1.0120000000e+05
    1.4459769242e-02    1.0120000000e+05
    1.4469866641e-02    1.0120000000e+05
    1.4479964972e-02    1.0120000000e+05
    1.4489805326e-02    1.0120000000e+05
    1.4499904588e-02    1.0120000000e+05
    1.4509744942e-02    1.0120000000e+05
    1.4519846067e-02    1.0120000000e+05
    1.4529946260e-02    1.0120000000e+05
    1.4539788477e-02    1.0120000000e+05
    1.4549889602e-02    1.0120000000e+05
    1.4559991658e-02    1.0120000000e+05
    1.4569834806e-02    1.0120000000e+05
    1.4579936862e-02    1.0120000000e+05
    1.4589780010e-02    1.0120000000e+05
    1.4599882066e-02    1.0120000000e+05
    1.4609985054e-02    1.0120000000e+05
    1.4619828202e-02    1.0120000000e+05
    1.4629930258e-02    1.0120000000e+05
    1.4639774337e-02    1.0120000000e+05
    1.4649878256e-02    1.0120000000e+05
    1.4659985900e-02    1.0120000000e+05
    1.4669837430e-02    1.0120000000e+05
    1.4679953456e-02    1.0120000000e+05
    1.4689813368e-02    1.0120000000e+05
    1.4699931256e-02    1.0120000000e+05
    1.4709787443e-02    1.0120000000e+05
    1.4719902538e-02    1.0120000000e+05
    1.4729757793e-02    1.0120000000e+05
    1.4739871956e-02    1.0120000000e+05
    1.4749986120e-02    1.0120000000e+05
    1.4759842306e-02    1.0120000000e+05
    1.4769960195e-02    1.0120000000e+05
    1.4779821038e-02    1.0120000000e+05
    1.4789940789e-02    1.0120000000e+05
    1.4799801633e-02    1.0120000000e+05
    1.4809921384e-02    1.0120000000e+05
    1.4819781296e-02    1.0120000000e+05
    1.4829901978e-02    1.0120000000e+05
    1.4839762822e-02    1.0120000000e+05
    1.4849882573e-02    1.0120000000e+05
    1.4859743416e-02    1.0120000000e+05
    1.4869863167e-02    1.0120000000e+05
    1.4879983850e-02    1.0120000000e+05
    1.4889844693e-02    1.0120000000e+05
    1.4899965376e-02    1.0120000000e+05
    1.4909827150e-02    1.0120000000e+05
    1.4919948764e-02    1.0120000000e+05
    1.4929809608e-02    1.0120000000e+05
    1.4939931221e-02    1.0120000000e+05
    1.4949792065e-02    1.0120000000e+05
    1.4959912747e-02    1.0120000000e+05
    1.4969774522e-02    1.0120000000e+05
    1.4979896136e-02    1.0120000000e+05
    1.4989758842e-02    1.0120000000e+05
    1.4999880455e-02    1.0120000000e+05
    1.5009743161e-02    1.0120000000e+05
    1.5019864775e-02    1.0120000000e+05
    1.5029986389e-02    1.0120000000e+05
    1.5039848164e-02    1.0120000000e+05
    1.5049969777e-02    1.0120000000e+05
    1.5059833415e-02    1.0120000000e+05
    1.5069955029e-02    1.0120000000e+05
    1.5079817735e-02    1.0120000000e+05
    1.5089940280e-02    1.0120000000e+05
    1.5099802054e-02    1.0120000000e+05
    1.5109924600e-02    1.0120000000e+05
    1.5119787306e-02    1.0120000000e+05
    1.5129909851e-02    1.0120000000e+05
    1.5139773488e-02    1.0120000000e+05
    1.5149896033e-02    1.0120000000e+05
    1.5159758739e-02    1.0120000000e+05
    1.5169881284e-02    1.0120000000e+05
    1.5179744922e-02    1.0120000000e+05
    1.5189867467e-02    1.0120000000e+05
    1.5199990943e-02    1.0120000000e+05
    1.5209853649e-02    1.0120000000e+05
    1.5219977126e-02    1.0120000000e+05
    1.5229839832e-02    1.0120000000e+05
    1.5239963308e-02    1.0120000000e+05
    1.5249826945e-02    1.0120000000e+05
    1.5259950422e-02    1.0120000000e+05
    1.5269813128e-02    1.0120000000e+05
    1.5279936604e-02    1.0120000000e+05
    1.5289800242e-02    1.0120000000e+05
    1.5299923718e-02    1.0120000000e+05
    1.5309787355e-02    1.0120000000e+05
    1.5319910832e-02    1.0120000000e+05
    1.5329774469e-02    1.0120000000e+05
    1.5339897946e-02    1.0120000000e+05
    1.5349761583e-02    1.0120000000e+05
    1.5359885991e-02    1.0120000000e+05
    1.5369749628e-02    1.0120000000e+05
    1.5379873104e-02    1.0120000000e+05
    1.5389996581e-02    1.0120000000e+05
    1.5399861149e-02    1.0120000000e+05
    1.5409984626e-02    1.0120000000e+05
    1.5419849195e-02    1.0120000000e+05
    1.5429972671e-02    1.0120000000e+05
    1.5439837240e-02    1.0120000000e+05
    1.5449960716e-02    1.0120000000e+05
    1.5459825285e-02    1.0120000000e+05
    1.5469949692e-02    1.0120000000e+05
    1.5479814261e-02    1.0120000000e+05
    1.5489937738e-02    1.0120000000e+05
    1.5499803238e-02    1.0120000000e+05
    1.5509927645e-02    1.0120000000e+05
    1.5519792214e-02    1.0120000000e+05
    1.5529916622e-02    1.0120000000e+05
    1.5539781190e-02    1.0120000000e+05
    1.5549905598e-02    1.0120000000e+05
    1.5559771098e-02    1.0120000000e+05
    1.5569896437e-02    1.0120000000e+05
    1.5579761006e-02    1.0120000000e+05
    1.5589886345e-02    1.0120000000e+05
    1.5599751845e-02    1.0120000000e+05
    1.5609876253e-02    1.0120000000e+05
    1.5619742684e-02    1.0120000000e+05
    1.5629867092e-02    1.0120000000e+05
    1.5639994293e-02    1.0120000000e+05
    1.5649858862e-02    1.0120000000e+05
    1.5659986064e-02    1.0120000000e+05
    1.5669850633e-02    1.0120000000e+05
    1.5679977834e-02    1.0120000000e+05
    1.5689842403e-02    1.0120000000e+05
    1.5699969605e-02    1.0120000000e+05
    1.5709836036e-02    1.0120000000e+05
    1.5719961375e-02    1.0120000000e+05
    1.5729829669e-02    1.0120000000e+05
    1.5739956871e-02    1.0120000000e+05
    1.5749823302e-02    1.0120000000e+05
    1.5759950504e-02    1.0120000000e+05
    1.5769818798e-02    1.0120000000e+05
    1.5779945999e-02    1.0120000000e+05
    1.5789814293e-02    1.0120000000e+05
    1.5799941495e-02    1.0120000000e+05
    1.5809807926e-02    1.0120000000e+05
    1.5819936991e-02    1.0120000000e+05
    1.5829805285e-02    1.0120000000e+05
    1.5839934349e-02    1.0120000000e+05
    1.5849802643e-02    1.0120000000e+05
    1.5859929845e-02    1.0120000000e+05
    1.5869800001e-02    1.0120000000e+05
    1.5879927203e-02    1.0120000000e+05
    1.5889797360e-02    1.0120000000e+05
    1.5899926424e-02    1.0120000000e+05
    1.5909794718e-02    1.0120000000e+05
    1.5919925645e-02    1.0120000000e+05
    1.5929793939e-02    1.0120000000e+05
    1.5939924866e-02    1.0120000000e+05
    1.5949795023e-02    1.0120000000e+05
    1.5959925950e-02    1.0120000000e+05
    1.5969796106e-02    1.0120000000e+05
    1.5979927033e-02    1.0120000000e+05
    1.5989797190e-02    1.0120000000e+05
    1.5999928117e-02    1.0120000000e+05
    1.6009798273e-02    1.0120000000e+05
    1.6019929200e-02    1.0120000000e+05
    1.6029801220e-02    1.0120000000e+05
    1.6039932147e-02    1.0120000000e+05
    1.6049804166e-02    1.0120000000e+05
    1.6059935093e-02    1.0120000000e+05
    1.6069807112e-02    1.0120000000e+05
    1.6079939902e-02    1.0120000000e+05
    1.6089811921e-02    1.0120000000e+05
    1.6099944711e-02    1.0120000000e+05
    1.6109816730e-02    1.0120000000e+05
    1.6119949520e-02    1.0120000000e+05
    1.6129821539e-02    1.0120000000e+05
    1.6139956191e-02    1.0120000000e+05
    1.6149828210e-02    1.0120000000e+05
    1.6159961000e-02    1.0120000000e+05
    1.6169834882e-02    1.0120000000e+05
    1.6179969534e-02    1.0120000000e+05
    1.6189843416e-02    1.0120000000e+05
    1.6199976206e-02    1.0120000000e+05
    1.6209850088e-02    1.0120000000e+05
    1.6219984740e-02    1.0120000000e+05
    1.6229858622e-02    1.0120000000e+05
    1.6239993274e-02    1.0120000000e+05
    1.6249869019e-02    1.0120000000e+05
    1.6259744763e-02    1.0120000000e+05
    1.6269879416e-02    1.0120000000e+05
    1.6279753298e-02    1.0120000000e+05
    1.6289887950e-02    1.0120000000e+05
    1.6299763694e-02    1.0120000000e+05
    1.6309900209e-02    1.0120000000e+05
    1.6319775954e-02    1.0120000000e+05
    1.6329910606e-02    1.0120000000e+05
    1.6339788213e-02    1.0120000000e+05
    1.6349922866e-02    1.0120000000e+05
    1.6359800473e-02    1.0120000000e+05
    1.6369935125e-02    1.0120000000e+05
    1.6379812732e-02    1.0120000000e+05
    1.6389949247e-02    1.0120000000e+05
    1.6399826854e-02    1.0120000000e+05
    1.6409963369e-02    1.0120000000e+05
    1.6419839114e-02    1.0120000000e+05
    1.6429977491e-02    1.0120000000e+05
    1.6439855099e-02    1.0120000000e+05
    1.6449991614e-02    1.0120000000e+05
    1.6459869221e-02    1.0120000000e+05
    1.6469746828e-02    1.0120000000e+05
    1.6479885206e-02    1.0120000000e+05
    1.6489762813e-02    1.0120000000e+05
    1.6499901190e-02    1.0120000000e+05
    1.6509778798e-02    1.0120000000e+05
    1.6519917175e-02    1.0120000000e+05
    1.6529794782e-02    1.0120000000e+05
    1.6539933160e-02    1.0120000000e+05
    1.6549812630e-02    1.0120000000e+05
    1.6559951007e-02    1.0120000000e+05
    1.6569828615e-02    1.0120000000e+05
    1.6579968855e-02    1.0120000000e+05
    1.6589848325e-02    1.0120000000e+05
    1.6599986702e-02    1.0120000000e+05
    1.6609866172e-02    1.0120000000e+05
    1.6619745642e-02    1.0120000000e+05
    1.6629884019e-02    1.0120000000e+05
    1.6639765352e-02    1.0120000000e+05
    1.6649903730e-02    1.0120000000e+05
    1.6659785062e-02    1.0120000000e+05
    1.6669923440e-02    1.0120000000e+05
    1.6679804772e-02    1.0120000000e+05
    1.6689945012e-02    1.0120000000e+05
    1.6699824482e-02    1.0120000000e+05
    1.6709964722e-02    1.0120000000e+05
    1.6719846055e-02    1.0120000000e+05
    1.6729986295e-02    1.0120000000e+05
    1.6739867628e-02    1.0120000000e+05
    1.6749748960e-02    1.0120000000e+05
    1.6759889200e-02    1.0120000000e+05
    1.6769770533e-02    1.0120000000e+05
    1.6779912636e-02    1.0120000000e+05
    1.6789793968e-02    1.0120000000e+05
    1.6799936071e-02    1.0120000000e+05
    1.6809817404e-02    1.0120000000e+05
    1.6819957644e-02    1.0120000000e+05
    1.6829840839e-02    1.0120000000e+05
    1.6839982942e-02    1.0120000000e+05
    1.6849864274e-02    1.0120000000e+05
    1.6859747469e-02    1.0120000000e+05
    1.6869889572e-02    1.0120000000e+05
    1.6879770905e-02    1.0120000000e+05
    1.6889914870e-02    1.0120000000e+05
    1.6899796203e-02    1.0120000000e+05
    1.6909940168e-02    1.0120000000e+05
    1.6919823363e-02    1.0120000000e+05
    1.6929965466e-02    1.0120000000e+05
    1.6939848661e-02    1.0120000000e+05
    1.6949992627e-02    1.0120000000e+05
    1.6959875822e-02    1.0120000000e+05
    1.6969759017e-02    1.0120000000e+05
    1.6979901120e-02    1.0120000000e+05
    1.6989786178e-02    1.0120000000e+05
    1.6999928281e-02    1.0120000000e+05
    1.7009813339e-02    1.0120000000e+05
    1.7019957304e-02    1.0120000000e+05
    1.7029840499e-02    1.0120000000e+05
    1.7039984465e-02    1.0120000000e+05
    1.7049869522e-02    1.0120000000e+05
    1.7059752718e-02    1.0120000000e+05
    1.7069898546e-02    1.0120000000e+05
    1.7079781741e-02    1.0120000000e+05
    1.7089927569e-02    1.0120000000e+05
    1.7099810764e-02    1.0120000000e+05
    1.7109956592e-02    1.0120000000e+05
    1.7119841650e-02    1.0120000000e+05
    1.7129985616e-02    1.0120000000e+05
    1.7139870673e-02    1.0120000000e+05
    1.7149755731e-02    1.0120000000e+05
    1.7159901559e-02    1.0120000000e+05
    1.7169786617e-02    1.0120000000e+05
    1.7179932445e-02    1.0120000000e+05
    1.7189817503e-02    1.0120000000e+05
    1.7199963331e-02    1.0120000000e+05
    1.7209848389e-02    1.0120000000e+05
    1.7219994217e-02    1.0120000000e+05
    1.7229879275e-02    1.0120000000e+05
    1.7239766195e-02    1.0120000000e+05
    1.7249912024e-02    1.0120000000e+05
    1.7259797081e-02    1.0120000000e+05
    1.7269944772e-02    1.0120000000e+05
    1.7279829830e-02    1.0120000000e+05
    1.7289975658e-02    1.0120000000e+05
    1.7299862579e-02    1.0120000000e+05
    1.7309749499e-02    1.0120000000e+05
    1.7319895327e-02    1.0120000000e+05
    1.7329782248e-02    1.0120000000e+05
    1.7339928076e-02    1.0120000000e+05
    1.7349814996e-02    1.0120000000e+05
    1.7359962687e-02    1.0120000000e+05
    1.7369849607e-02    1.0120000000e+05
    1.7379995435e-02    1.0120000000e+05
    1.7389882356e-02    1.0120000000e+05
    1.7399769276e-02    1.0120000000e+05
    1.7409916967e-02    1.0120000000e+05
    1.7419803888e-02    1.0120000000e+05
    1.7429951578e-02    1.0120000000e+05
    1.7439838499e-02    1.0120000000e+05
    1.7449986190e-02    1.0120000000e+05
    1.7459873110e-02    1.0120000000e+05
    1.7469761893e-02    1.0120000000e+05
    1.7479909584e-02    1.0120000000e+05
    1.7489796504e-02    1.0120000000e+05
    1.7499944195e-02    1.0120000000e+05
    1.7509831116e-02    1.0120000000e+05
    1.7519980669e-02    1.0120000000e+05
    1.7529867589e-02    1.0120000000e+05
    1.7539756373e-02    1.0120000000e+05
    1.7549904063e-02    1.0120000000e+05
    1.7559790984e-02    1.0120000000e+05
    1.7569940537e-02    1.0120000000e+05
    1.7579827458e-02    1.0120000000e+05
    1.7589977011e-02    1.0120000000e+05
    1.7599863932e-02    1.0120000000e+05
    1.7609752715e-02    1.0120000000e+05
    1.7619900405e-02    1.0120000000e+05
    1.7629789189e-02    1.0120000000e+05
    1.7639936879e-02    1.0120000000e+05
    1.7649825662e-02    1.0120000000e+05
    1.7659973353e-02    1.0120000000e+05
    1.7669862136e-02    1.0120000000e+05
    1.7679750919e-02    1.0120000000e+05
    1.7689900473e-02    1.0120000000e+05
    1.7699789256e-02    1.0120000000e+05
    1.7709936947e-02    1.0120000000e+05
    1.7719825730e-02    1.0120000000e+05
    1.7729975283e-02    1.0120000000e+05
    1.7739862204e-02    1.0120000000e+05
    1.7749750987e-02    1.0120000000e+05
    1.7759900540e-02    1.0120000000e+05
    1.7769789323e-02    1.0120000000e+05
    1.7779938877e-02    1.0120000000e+05
    1.7789827660e-02    1.0120000000e+05
    1.7799975350e-02    1.0120000000e+05
    1.7809864134e-02    1.0120000000e+05
    1.7819752917e-02    1.0120000000e+05
    1.7829902470e-02    1.0120000000e+05
    1.7839791253e-02    1.0120000000e+05
    1.7849940807e-02    1.0120000000e+05
    1.7859829590e-02    1.0120000000e+05
    1.7869979143e-02    1.0120000000e+05
    1.7879867926e-02    1.0120000000e+05
    1.7889756709e-02    1.0120000000e+05
    1.7899906263e-02    1.0120000000e+05
    1.7909795046e-02    1.0120000000e+05
    1.7919944599e-02    1.0120000000e+05
    1.7929833382e-02    1.0120000000e+05
    1.7939982936e-02    1.0120000000e+05
    1.7949871719e-02    1.0120000000e+05
    1.7959760502e-02    1.0120000000e+05
    1.7969910055e-02    1.0120000000e+05
    1.7979798838e-02    1.0120000000e+05
    1.7989948392e-02    1.0120000000e+05
    1.7999837175e-02    1.0120000000e+05
    1.8009986728e-02    1.0120000000e+05
    1.8019875512e-02    1.0120000000e+05
    1.8029764295e-02    1.0120000000e+05
    1.8039913848e-02    1.0120000000e+05
    1.8049802631e-02    1.0120000000e+05
    1.8059952185e-02    1.0120000000e+05
    1.8069840968e-02    1.0120000000e+05
    1.8079990521e-02    1.0120000000e+05
    1.8089879304e-02    1.0120000000e+05
    1.8099768087e-02    1.0120000000e+05
    1.8109917641e-02    1.0120000000e+05
    1.8119808286e-02    1.0120000000e+05
    1.8129955977e-02    1.0120000000e+05
    1.8139846623e-02    1.0120000000e+05
    1.8149994314e-02    1.0120000000e+05
    1.8159884959e-02    1.0120000000e+05
    1.8169773743e-02    1.0120000000e+05
    1.8179923296e-02    1.0120000000e+05
    1.8189812079e-02    1.0120000000e+05
    1.8199961632e-02    1.0120000000e+05
    1.8209850416e-02    1.0120000000e+05
    1.8219999969e-02    1.0120000000e+05
    1.8229888752e-02    1.0120000000e+05
    1.8239777535e-02    1.0120000000e+05
    1.8249927089e-02    1.0120000000e+05
    1.8259815872e-02    1.0120000000e+05
    1.8269965425e-02    1.0120000000e+05
    1.8279854208e-02    1.0120000000e+05
    1.8289742991e-02    1.0120000000e+05
    1.8299892545e-02    1.0120000000e+05
    1.8309781328e-02    1.0120000000e+05
    1.8319930881e-02    1.0120000000e+05
    1.8329819664e-02    1.0120000000e+05
    1.8339969218e-02    1.0120000000e+05
    1.8349858001e-02    1.0120000000e+05
    1.8359746784e-02    1.0120000000e+05
    1.8369896337e-02    1.0120000000e+05
    1.8379785120e-02    1.0120000000e+05
    1.8389934674e-02    1.0120000000e+05
    1.8399823457e-02    1.0120000000e+05
    1.8409973010e-02    1.0120000000e+05
    1.8419861794e-02    1.0120000000e+05
    1.8429750577e-02    1.0120000000e+05
    1.8439900130e-02    1.0120000000e+05
    1.8449788913e-02    1.0120000000e+05
    1.8459938467e-02    1.0120000000e+05
    1.8469827250e-02    1.0120000000e+05
    1.8479976803e-02    1.0120000000e+05
    1.8489865586e-02    1.0120000000e+05
    1.8499754369e-02    1.0120000000e+05
    1.8509902060e-02    1.0120000000e+05
    1.8519790843e-02    1.0120000000e+05
    1.8529940397e-02    1.0120000000e+05
    1.8539829180e-02    1.0120000000e+05
    1.8549978733e-02    1.0120000000e+05
    1.8559867516e-02    1.0120000000e+05
    1.8569756299e-02    1.0120000000e+05
    1.8579905853e-02    1.0120000000e+05
    1.8589794636e-02    1.0120000000e+05
    1.8599944189e-02    1.0120000000e+05
    1.8609834835e-02    1.0120000000e+05
    1.8619984388e-02    1.0120000000e+05
    1.8629873171e-02    1.0120000000e+05
    1.8639763817e-02    1.0120000000e+05
    1.8649913371e-02    1.0120000000e+05
    1.8659804016e-02    1.0120000000e+05
    1.8669953570e-02    1.0120000000e+05
    1.8679844216e-02    1.0120000000e+05
    1.8689995632e-02    1.0120000000e+05
    1.8699886277e-02    1.0120000000e+05
    1.8709776923e-02    1.0120000000e+05
    1.8719926476e-02    1.0120000000e+05
    1.8729817122e-02    1.0120000000e+05
    1.8739970401e-02    1.0120000000e+05
    1.8749861047e-02    1.0120000000e+05
    1.8759751692e-02    1.0120000000e+05
    1.8769904971e-02    1.0120000000e+05
    1.8779795617e-02    1.0120000000e+05
    1.8789948896e-02    1.0120000000e+05
    1.8799841404e-02    1.0120000000e+05
    1.8809992820e-02    1.0120000000e+05
    1.8819887191e-02    1.0120000000e+05
    1.8829779699e-02    1.0120000000e+05
    1.8839932978e-02    1.0120000000e+05
    1.8849827349e-02    1.0120000000e+05
    1.8859980628e-02    1.0120000000e+05
    1.8869874999e-02    1.0120000000e+05
    1.8879769370e-02    1.0120000000e+05
    1.8889924511e-02    1.0120000000e+05
    1.8899818882e-02    1.0120000000e+05
    1.8909974024e-02    1.0120000000e+05
    1.8919868395e-02    1.0120000000e+05
    1.8929762766e-02    1.0120000000e+05
    1.8939917907e-02    1.0120000000e+05
    1.8949814141e-02    1.0120000000e+05
    1.8959969282e-02    1.0120000000e+05
    1.8969863653e-02    1.0120000000e+05
    1.8979759887e-02    1.0120000000e+05
    1.8989918754e-02    1.0120000000e+05
    1.8999816850e-02    1.0120000000e+05
    1.9009973854e-02    1.0120000000e+05
    1.9019873813e-02    1.0120000000e+05
    1.9029771909e-02    1.0120000000e+05
    1.9039930776e-02    1.0120000000e+05
    1.9049828872e-02    1.0120000000e+05
    1.9059987739e-02    1.0120000000e+05
    1.9069885835e-02    1.0120000000e+05
    1.9079785794e-02    1.0120000000e+05
    1.9089942798e-02    1.0120000000e+05
    1.9099840894e-02    1.0120000000e+05
    1.9109738991e-02    1.0120000000e+05
    1.9119897857e-02    1.0120000000e+05
    1.9129795954e-02    1.0120000000e+05
    1.9139954820e-02    1.0120000000e+05
    1.9149852917e-02    1.0120000000e+05
    1.9159749150e-02    1.0120000000e+05
    1.9169909880e-02    1.0120000000e+05
    1.9179807976e-02    1.0120000000e+05
    1.9189966843e-02    1.0120000000e+05
    1.9199866802e-02    1.0120000000e+05
    1.9209766760e-02    1.0120000000e+05
    1.9219927490e-02    1.0120000000e+05
    1.9229829311e-02    1.0120000000e+05
    1.9239990041e-02    1.0120000000e+05
    1.9249890000e-02    1.0120000000e+05
    1.9259791821e-02    1.0120000000e+05
    1.9269954413e-02    1.0120000000e+05
    1.9279856235e-02    1.0120000000e+05
    1.9289758056e-02    1.0120000000e+05
    1.9299922511e-02    1.0120000000e+05
    1.9309826195e-02    1.0120000000e+05
    1.9319992512e-02    1.0120000000e+05
    1.9329898059e-02    1.0120000000e+05
    1.9339805469e-02    1.0120000000e+05
    1.9349973649e-02    1.0120000000e+05
    1.9359884784e-02    1.0120000000e+05
    1.9369794056e-02    1.0120000000e+05
    1.9379965961e-02    1.0120000000e+05
    1.9389875233e-02    1.0120000000e+05
    1.9399788231e-02    1.0120000000e+05
    1.9409961998e-02    1.0120000000e+05
    1.9419874996e-02    1.0120000000e+05
    1.9429787993e-02    1.0120000000e+05
    1.9439963624e-02    1.0120000000e+05
[...]
    1.3513994217e-01    1.0123958594e+05
    1.3514991105e-01    1.0123957031e+05
    1.3515987992e-01    1.0123955469e+05
    1.3516984880e-01    1.0123953906e+05
    1.3517981768e-01    1.0123953125e+05
    1.3518980145e-01    1.0123952344e+05
    1.3519977033e-01    1.0123950000e+05
    1.3520973921e-01    1.0123949219e+05
    1.3521970809e-01    1.0123947656e+05
    1.3522998989e-01    1.0123946094e+05
    1.3523995876e-01    1.0123944531e+05
    1.3524992764e-01    1.0123943750e+05
    1.3525991142e-01    1.0123941406e+05
    1.3526988029e-01    1.0123940625e+05
    1.3527984917e-01    1.0123939844e+05
    1.3528981805e-01    1.0123938281e+05
    1.3529978693e-01    1.0123936719e+05
    1.3530977070e-01    1.0123935156e+05
    1.3531973958e-01    1.0123933594e+05
    1.3532970846e-01    1.0123933594e+05
    1.3533999026e-01    1.0123931250e+05
    1.3534995914e-01    1.0123928906e+05
    1.3535992801e-01    1.0123928906e+05
    1.3536989689e-01    1.0123927344e+05
    1.3537988067e-01    1.0123925781e+05
    1.3538984954e-01    1.0123925000e+05
    1.3539981842e-01    1.0123922656e+05
    1.3540978730e-01    1.0123921875e+05
    1.3541975617e-01    1.0123921094e+05
    1.3542973995e-01    1.0123919531e+05
    1.3543970883e-01    1.0123917969e+05
    1.3544997573e-01    1.0123916406e+05
    1.3545995951e-01    1.0123915625e+05
    1.3546992838e-01    1.0123914844e+05
    1.3547989726e-01    1.0123913281e+05
    1.3548986614e-01    1.0123911719e+05
    1.3549984992e-01    1.0123910156e+05
    1.3550981879e-01    1.0123909375e+05
    1.3551978767e-01    1.0123908594e+05
    1.3552975655e-01    1.0123907031e+05
    1.3553972542e-01    1.0123905469e+05
    1.3554970920e-01    1.0123903906e+05
    1.3555997610e-01    1.0123903125e+05
    1.3556994498e-01    1.0123902344e+05
    1.3557992876e-01    1.0123900781e+05
    1.3558989763e-01    1.0123900000e+05
    1.3559986651e-01    1.0123897656e+05
    1.3560983539e-01    1.0123897656e+05
    1.3561981916e-01    1.0123896094e+05
    1.3562978804e-01    1.0123894531e+05
    1.3563975692e-01    1.0123893750e+05
    1.3564972579e-01    1.0123891406e+05
    1.3565969467e-01    1.0123891406e+05
    1.3566997647e-01    1.0123889844e+05
    1.3567994535e-01    1.0123889844e+05
    1.3568991423e-01    1.0123887500e+05
    1.3569989800e-01    1.0123886719e+05
    1.3570986688e-01    1.0123885156e+05
    1.3571983576e-01    1.0123884375e+05
    1.3572980464e-01    1.0123883594e+05
    1.3573978841e-01    1.0123882031e+05
    1.3574975729e-01    1.0123880469e+05
    1.3575972617e-01    1.0123878906e+05
    1.3576969504e-01    1.0123878125e+05
    1.3577997684e-01    1.0123877344e+05
    1.3578994572e-01    1.0123875781e+05
    1.3579991460e-01    1.0123875000e+05
    1.3580988348e-01    1.0123872656e+05
    1.3581986725e-01    1.0123872656e+05
    1.3582983613e-01    1.0123871094e+05
    1.3583980501e-01    1.0123871094e+05
    1.3584977388e-01    1.0123868750e+05
    1.3585975766e-01    1.0123867969e+05
    1.3586972654e-01    1.0123866406e+05
    1.3587999344e-01    1.0123865625e+05
    1.3588996232e-01    1.0123864844e+05
    1.3589994609e-01    1.0123863281e+05
    1.3590991497e-01    1.0123861719e+05
    1.3591988385e-01    1.0123860156e+05
    1.3592985272e-01    1.0123859375e+05
    1.3593983650e-01    1.0123858594e+05
    1.3594980538e-01    1.0123858594e+05
    1.3595977426e-01    1.0123856250e+05
    1.3596974313e-01    1.0123855469e+05
    1.3597972691e-01    1.0123853906e+05
    1.3598999381e-01    1.0123853125e+05
    1.3599996269e-01    1.0123852344e+05
    1.3600993156e-01    1.0123850781e+05
    1.3601991534e-01    1.0123849219e+05
    1.3602988422e-01    1.0123847656e+05
    1.3603985310e-01    1.0123846875e+05
    1.3604982197e-01    1.0123846094e+05
    1.3605980575e-01    1.0123844531e+05
    1.3606977463e-01    1.0123843750e+05
    1.3607974350e-01    1.0123841406e+05
    1.3608971238e-01    1.0123841406e+05
    1.3609999418e-01    1.0123840625e+05
    1.3610996306e-01    1.0123839844e+05
    1.3611993194e-01    1.0123838281e+05
    1.3612990081e-01    1.0123836719e+05
    1.3613988459e-01    1.0123835156e+05
    1.3614985347e-01    1.0123835156e+05
    1.3615982234e-01    1.0123834375e+05
    1.3616979122e-01    1.0123833594e+05
    1.3617977500e-01    1.0123832031e+05
    1.3618974388e-01    1.0123831250e+05
    1.3619971275e-01    1.0123828906e+05
    1.3620999455e-01    1.0123828906e+05
    1.3621996343e-01    1.0123828125e+05
    1.3622993231e-01    1.0123827344e+05
    1.3623990119e-01    1.0123825781e+05
    1.3624987006e-01    1.0123825000e+05
    1.3625985384e-01    1.0123824219e+05
    1.3626982272e-01    1.0123822656e+05
    1.3627979159e-01    1.0123821875e+05
    1.3628976047e-01    1.0123821094e+05
    1.3629974425e-01    1.0123821094e+05
    1.3630971313e-01    1.0123819531e+05
    1.3631998003e-01    1.0123817969e+05
    1.3632996380e-01    1.0123816406e+05
    1.3633993268e-01    1.0123816406e+05
    1.3634990156e-01    1.0123815625e+05
    1.3635987043e-01    1.0123814844e+05
    1.3636983931e-01    1.0123813281e+05
    1.3637982309e-01    1.0123812500e+05
    1.3638979197e-01    1.0123811719e+05
    1.3639976084e-01    1.0123810156e+05
    1.3640972972e-01    1.0123810156e+05
    1.3641971350e-01    1.0123808594e+05
    1.3642998040e-01    1.0123808594e+05
    1.3643994927e-01    1.0123807031e+05
    1.3644993305e-01    1.0123806250e+05
    1.3645990193e-01    1.0123805469e+05
    1.3646987081e-01    1.0123803906e+05
    1.3647983968e-01    1.0123803125e+05
    1.3648980856e-01    1.0123802344e+05
    1.3649979234e-01    1.0123802344e+05
    1.3650976121e-01    1.0123800781e+05
    1.3651973009e-01    1.0123799219e+05
    1.3652969897e-01    1.0123797656e+05
    1.3653998077e-01    1.0123797656e+05
    1.3654994965e-01    1.0123796875e+05
    1.3655991852e-01    1.0123796094e+05
    1.3656990230e-01    1.0123796094e+05
    1.3657987118e-01    1.0123793750e+05
    1.3658984005e-01    1.0123792969e+05
    1.3659980893e-01    1.0123791406e+05
    1.3660977781e-01    1.0123791406e+05
    1.3661976159e-01    1.0123790625e+05
    1.3662973046e-01    1.0123789844e+05
    1.3663969934e-01    1.0123788281e+05
    1.3664998114e-01    1.0123787500e+05
    1.3665995002e-01    1.0123786719e+05
    1.3666991889e-01    1.0123785156e+05
    1.3667988777e-01    1.0123785156e+05
    1.3668987155e-01    1.0123784375e+05
    1.3669984043e-01    1.0123783594e+05
    1.3670980930e-01    1.0123782031e+05
    1.3671977818e-01    1.0123781250e+05
    1.3672974706e-01    1.0123780469e+05
    1.3673973083e-01    1.0123778906e+05
    1.3674969971e-01    1.0123778906e+05
    1.3675996661e-01    1.0123778125e+05
    1.3676995039e-01    1.0123777344e+05
    1.3677991927e-01    1.0123775781e+05
    1.3678988814e-01    1.0123775000e+05
    1.3679985702e-01    1.0123774219e+05
    1.3680984080e-01    1.0123772656e+05
    1.3681980968e-01    1.0123772656e+05
    1.3682977855e-01    1.0123771875e+05
    1.3683974743e-01    1.0123771094e+05
    1.3684971631e-01    1.0123769531e+05
    1.3685999811e-01    1.0123768750e+05
    1.3686996698e-01    1.0123767969e+05
    1.3687993586e-01    1.0123766406e+05
    1.3688991964e-01    1.0123766406e+05
    1.3689988852e-01    1.0123765625e+05
    1.3690985739e-01    1.0123764844e+05
    1.3691982627e-01    1.0123763281e+05
    1.3692981005e-01    1.0123762500e+05
    1.3693977892e-01    1.0123761719e+05
    1.3694974780e-01    1.0123760156e+05
    1.3695971668e-01    1.0123760156e+05
    1.3696999848e-01    1.0123759375e+05
    1.3697996736e-01    1.0123758594e+05
    1.3698993623e-01    1.0123758594e+05
    1.3699990511e-01    1.0123757031e+05
    1.3700988889e-01    1.0123756250e+05
    1.3701985776e-01    1.0123755469e+05
    1.3702982664e-01    1.0123753906e+05
    1.3703979552e-01    1.0123753125e+05
    1.3704977930e-01    1.0123752344e+05
    1.3705974817e-01    1.0123752344e+05
    1.3706971705e-01    1.0123750781e+05
    1.3707998395e-01    1.0123750000e+05
    1.3708996773e-01    1.0123749219e+05
    1.3709993660e-01    1.0123747656e+05
    1.3710990548e-01    1.0123747656e+05
    1.3711987436e-01    1.0123746875e+05
    1.3712985814e-01    1.0123746094e+05
    1.3713982701e-01    1.0123746094e+05
    1.3714979589e-01    1.0123744531e+05
    1.3715976477e-01    1.0123743750e+05
    1.3716974854e-01    1.0123742969e+05
    1.3717971742e-01    1.0123741406e+05
    1.3718998432e-01    1.0123741406e+05
    1.3719996810e-01    1.0123740625e+05
    1.3720993698e-01    1.0123739844e+05
    1.3721990585e-01    1.0123738281e+05
    1.3722987473e-01    1.0123737500e+05
    1.3723984361e-01    1.0123736719e+05
    1.3724982738e-01    1.0123735156e+05
    1.3725979626e-01    1.0123735156e+05
    1.3726976514e-01    1.0123734375e+05
    1.3727973402e-01    1.0123733594e+05
    1.3728971779e-01    1.0123732031e+05
    1.3729998469e-01    1.0123731250e+05
    1.3730995357e-01    1.0123730469e+05
    1.3731993735e-01    1.0123728906e+05
    1.3732990623e-01    1.0123728125e+05
    1.3733987510e-01    1.0123727344e+05
    1.3734984398e-01    1.0123725781e+05
    1.3735981286e-01    1.0123725000e+05
    1.3736979663e-01    1.0123724219e+05
    1.3737976551e-01    1.0123722656e+05
    1.3738973439e-01    1.0123721875e+05
    1.3739970326e-01    1.0123721094e+05
    1.3740998507e-01    1.0123719531e+05
    1.3741995394e-01    1.0123718750e+05
    1.3742992282e-01    1.0123716406e+05
    1.3743990660e-01    1.0123715625e+05
    1.3744987547e-01    1.0123714844e+05
    1.3745984435e-01    1.0123713281e+05
    1.3746981323e-01    1.0123712500e+05
    1.3747978210e-01    1.0123710156e+05
    1.3748976588e-01    1.0123709375e+05
    1.3749973476e-01    1.0123708594e+05
    1.3750970364e-01    1.0123707031e+05
    1.3751998544e-01    1.0123705469e+05
    1.3752995431e-01    1.0123703906e+05
    1.3753992319e-01    1.0123703125e+05
    1.3754989207e-01    1.0123702344e+05
    1.3755987585e-01    1.0123700000e+05
    1.3756984472e-01    1.0123697656e+05
    1.3757981360e-01    1.0123696875e+05
    1.3758978248e-01    1.0123696094e+05
    1.3759975135e-01    1.0123694531e+05
    1.3760973513e-01    1.0123692969e+05
    1.3761970401e-01    1.0123691406e+05
    1.3762997091e-01    1.0123689844e+05
    1.3763995469e-01    1.0123688281e+05
    1.3764992356e-01    1.0123686719e+05
    1.3765989244e-01    1.0123685156e+05
    1.3766986132e-01    1.0123683594e+05
    1.3767984509e-01    1.0123682031e+05
    1.3768981397e-01    1.0123680469e+05
    1.3769978285e-01    1.0123678906e+05
    1.3770975173e-01    1.0123677344e+05
    1.3771972060e-01    1.0123675000e+05
    1.3772970438e-01    1.0123672656e+05
    1.3773997128e-01    1.0123671875e+05
    1.3774994016e-01    1.0123671094e+05
    1.3775992393e-01    1.0123668750e+05
    1.3776989281e-01    1.0123666406e+05
    1.3777986169e-01    1.0123664844e+05
    1.3778983057e-01    1.0123663281e+05
    1.3779981434e-01    1.0123661719e+05
    1.3780978322e-01    1.0123660156e+05
    1.3781975210e-01    1.0123658594e+05
    1.3782972097e-01    1.0123656250e+05
    1.3784000278e-01    1.0123653906e+05
    1.3784997165e-01    1.0123652344e+05
    1.3785994053e-01    1.0123650781e+05
    1.3786990941e-01    1.0123649219e+05
    1.3787989318e-01    1.0123646875e+05
    1.3788986206e-01    1.0123646094e+05
    1.3789983094e-01    1.0123643750e+05
    1.3790979981e-01    1.0123641406e+05
    1.3791978359e-01    1.0123639844e+05
    1.3792975247e-01    1.0123638281e+05
    1.3793972135e-01    1.0123635156e+05
    1.3794998825e-01    1.0123634375e+05
    1.3795997202e-01    1.0123632031e+05
    1.3796994090e-01    1.0123630469e+05
    1.3797990978e-01    1.0123628906e+05
    1.3798987865e-01    1.0123627344e+05
    1.3799986243e-01    1.0123625000e+05
    1.3800983131e-01    1.0123622656e+05
    1.3801980019e-01    1.0123621094e+05
    1.3802976906e-01    1.0123618750e+05
    1.3803975284e-01    1.0123616406e+05
    1.3804972172e-01    1.0123614844e+05
    1.3805998862e-01    1.0123613281e+05
    1.3806995749e-01    1.0123610156e+05
    1.3807994127e-01    1.0123609375e+05
    1.3808991015e-01    1.0123608594e+05
    1.3809987903e-01    1.0123605469e+05
    1.3810984790e-01    1.0123603906e+05
    1.3811983168e-01    1.0123602344e+05
    1.3812980056e-01    1.0123600000e+05
    1.3813976943e-01    1.0123597656e+05
    1.3814973831e-01    1.0123596094e+05
    1.3815972209e-01    1.0123593750e+05
    1.3816998899e-01    1.0123591406e+05
    1.3817995787e-01    1.0123589844e+05
    1.3818994164e-01    1.0123588281e+05
    1.3819991052e-01    1.0123585156e+05
    1.3820987940e-01    1.0123584375e+05
    1.3821984828e-01    1.0123582031e+05
    1.3822981715e-01    1.0123580469e+05
    1.3823980093e-01    1.0123578125e+05
    1.3824976981e-01    1.0123575781e+05
    1.3825973868e-01    1.0123574219e+05
    1.3826970756e-01    1.0123571875e+05
    1.3827998936e-01    1.0123571094e+05
    1.3828995824e-01    1.0123567969e+05
    1.3829992712e-01    1.0123566406e+05
    1.3830991089e-01    1.0123564844e+05
    1.3831987977e-01    1.0123562500e+05
    1.3832984865e-01    1.0123560156e+05
    1.3833981752e-01    1.0123558594e+05
    1.3834978640e-01    1.0123556250e+05
    1.3835977018e-01    1.0123553906e+05
    1.3836973906e-01    1.0123552344e+05
    1.3837970793e-01    1.0123550781e+05
    1.3838998973e-01    1.0123549219e+05
    1.3839995861e-01    1.0123546875e+05
    1.3840992749e-01    1.0123546094e+05
    1.3841989636e-01    1.0123543750e+05
    1.3842988014e-01    1.0123541406e+05
    1.3843984902e-01    1.0123540625e+05
    1.3844981790e-01    1.0123538281e+05
    1.3845978677e-01    1.0123537500e+05
    1.3846975565e-01    1.0123535156e+05
    1.3847973943e-01    1.0123534375e+05
    1.3848970830e-01    1.0123533594e+05
    1.3849997520e-01    1.0123531250e+05
    1.3850995898e-01    1.0123530469e+05
    1.3851992786e-01    1.0123528906e+05
    1.3852989674e-01    1.0123528125e+05
    1.3853986561e-01    1.0123527344e+05
    1.3854984939e-01    1.0123527344e+05
    1.3855981827e-01    1.0123525781e+05
    1.3856978714e-01    1.0123525000e+05
    1.3857975602e-01    1.0123524219e+05
    1.3858972490e-01    1.0123522656e+05
    1.3859970868e-01    1.0123522656e+05
    1.3860997558e-01    1.0123522656e+05
    1.3861994445e-01    1.0123522656e+05
    1.3862992823e-01    1.0123521875e+05
    1.3863989711e-01    1.0123521875e+05
    1.3864986598e-01    1.0123521875e+05
    1.3865983486e-01    1.0123521094e+05
    1.3866981864e-01    1.0123521094e+05
    1.3867978752e-01    1.0123521094e+05
    1.3868975639e-01    1.0123519531e+05
    1.3869972527e-01    1.0123517969e+05
    1.3870969415e-01    1.0123516406e+05
    1.3871997595e-01    1.0123514844e+05
    1.3872994483e-01    1.0123512500e+05
    1.3873991370e-01    1.0123509375e+05
    1.3874989748e-01    1.0123506250e+05
    1.3875986636e-01    1.0123502344e+05
    1.3876983523e-01    1.0123497656e+05
    1.3877980411e-01    1.0123492969e+05
    1.3878978789e-01    1.0123486719e+05
    1.3879975677e-01    1.0123480469e+05
    1.3880972564e-01    1.0123474219e+05
    1.3881969452e-01    1.0123466406e+05
    1.3882997632e-01    1.0123459375e+05
    1.3883994520e-01    1.0123452344e+05
    1.3884991407e-01    1.0123446094e+05
    1.3885988295e-01    1.0123438281e+05
    1.3886986673e-01    1.0123432031e+05
    1.3887983561e-01    1.0123427344e+05
    1.3888980448e-01    1.0123421094e+05
    1.3889977336e-01    1.0123416406e+05
    1.3890975714e-01    1.0123412500e+05
    1.3891972601e-01    1.0123408594e+05
    1.3892999291e-01    1.0123405469e+05
    1.3893997669e-01    1.0123402344e+05
    1.3894994557e-01    1.0123399219e+05
    1.3895991445e-01    1.0123396094e+05
    1.3896988332e-01    1.0123392969e+05
    1.3897985220e-01    1.0123389844e+05
    1.3898983598e-01    1.0123387500e+05
    1.3899980485e-01    1.0123384375e+05
    1.3900977373e-01    1.0123381250e+05
    1.3901974261e-01    1.0123378906e+05
    1.3902972639e-01    1.0123377344e+05
    1.3903999329e-01    1.0123375000e+05
    1.3904996216e-01    1.0123372656e+05
    1.3905994594e-01    1.0123371094e+05
    1.3906991482e-01    1.0123371094e+05
    1.3907988369e-01    1.0123368750e+05
    1.3908985257e-01    1.0123367969e+05
    1.3909982145e-01    1.0123366406e+05
    1.3910980523e-01    1.0123365625e+05
    1.3911977410e-01    1.0123364844e+05
    1.3912974298e-01    1.0123362500e+05
    1.3913971186e-01    1.0123361719e+05
    1.3914999366e-01    1.0123360156e+05
    1.3915996253e-01    1.0123359375e+05
    1.3916993141e-01    1.0123358594e+05
    1.3917991519e-01    1.0123357031e+05
    1.3918988407e-01    1.0123356250e+05
    1.3919985294e-01    1.0123356250e+05
    1.3920982182e-01    1.0123355469e+05
    1.3921979070e-01    1.0123353906e+05
    1.3922977448e-01    1.0123353906e+05
    1.3923974335e-01    1.0123353906e+05
    1.3924971223e-01    1.0123353906e+05
    1.3925999403e-01    1.0123353125e+05
    1.3926996291e-01    1.0123353125e+05
    1.3927993178e-01    1.0123353125e+05
    1.3928990066e-01    1.0123353125e+05
    1.3929988444e-01    1.0123353125e+05
    1.3930985332e-01    1.0123353125e+05
    1.3931982219e-01    1.0123353125e+05
    1.3932979107e-01    1.0123353125e+05
    1.3933975995e-01    1.0123353125e+05
    1.3934974372e-01    1.0123353125e+05
    1.3935971260e-01    1.0123353125e+05
    1.3936997950e-01    1.0123353125e+05
    1.3937996328e-01    1.0123353125e+05
    1.3938993216e-01    1.0123353125e+05
    1.3939990103e-01    1.0123353125e+05
    1.3940986991e-01    1.0123353125e+05
    1.3941985369e-01    1.0123353125e+05
    1.3942982256e-01    1.0123353125e+05
    1.3943979144e-01    1.0123353125e+05
    1.3944976032e-01    1.0123353906e+05
    1.3945974410e-01    1.0123353906e+05
    1.3946971297e-01    1.0123353906e+05
    1.3947997987e-01    1.0123353906e+05
    1.3948994875e-01    1.0123353906e+05
    1.3949993253e-01    1.0123353906e+05
    1.3950990140e-01    1.0123353906e+05
    1.3951987028e-01    1.0123353906e+05
    1.3952983916e-01    1.0123353906e+05
    1.3953982294e-01    1.0123353906e+05
    1.3954979181e-01    1.0123353906e+05
    1.3955976069e-01    1.0123353906e+05
    1.3956972957e-01    1.0123353906e+05
    1.3957971334e-01    1.0123353906e+05
    1.3958998024e-01    1.0123353906e+05
    1.3959994912e-01    1.0123353906e+05
    1.3960991800e-01    1.0123353906e+05
    1.3961990178e-01    1.0123353906e+05
    1.3962987065e-01    1.0123353906e+05
    1.3963983953e-01    1.0123353906e+05
    1.3964980841e-01    1.0123353906e+05
    1.3965979218e-01    1.0123353906e+05
    1.3966976106e-01    1.0123353906e+05
    1.3967972994e-01    1.0123353906e+05
    1.3968969882e-01    1.0123353906e+05
    1.3969998062e-01    1.0123353906e+05
    1.3970994949e-01    1.0123353906e+05
    1.3971991837e-01    1.0123353906e+05
    1.3972990215e-01    1.0123353906e+05
    1.3973987103e-01    1.0123353125e+05
    1.3974983990e-01    1.0123353125e+05
    1.3975980878e-01    1.0123352344e+05
    1.3976977766e-01    1.0123352344e+05
    1.3977976143e-01    1.0123352344e+05
    1.3978973031e-01    1.0123352344e+05
    1.3979969919e-01    1.0123352344e+05
    1.3980998099e-01    1.0123350781e+05
    1.3981994987e-01    1.0123350000e+05
    1.3982991874e-01    1.0123350000e+05
    1.3983988762e-01    1.0123349219e+05
    1.3984987140e-01    1.0123347656e+05
    1.3985984027e-01    1.0123347656e+05
    1.3986980915e-01    1.0123347656e+05
    1.3987977803e-01    1.0123346875e+05
    1.3988974690e-01    1.0123346094e+05
    1.3989973068e-01    1.0123346094e+05
    1.3990969956e-01    1.0123344531e+05
    1.3991996646e-01    1.0123343750e+05
    1.3992995024e-01    1.0123342969e+05
    1.3993991911e-01    1.0123341406e+05
    1.3994988799e-01    1.0123341406e+05
    1.3995985687e-01    1.0123340625e+05
    1.3996984065e-01    1.0123339844e+05
    1.3997980952e-01    1.0123339844e+05
    1.3998977840e-01    1.0123338281e+05
    1.3999974728e-01    1.0123336719e+05
endcurve
