Curveplot
LS-DYNA keyword deck by LS-PrePost                          
Time
Pressure
Defined Connection
Pressure @ 9 #pts=12001
* Minval=     7.7031929688e+04 at time=         0.0129798083
* Maxval=     2.7851681250e+05 at time=         0.0049798498
    0.0000000000e+00    1.0120000000e+05
    9.9485332612e-06    1.0120000000e+05
    1.9900615371e-05    1.0120000000e+05
    2.9943221307e-05    1.0120000000e+05
    3.9971277147e-05    1.0120000000e+05
    4.9985668738e-05    1.0120000000e+05
    5.9995261836e-05    1.0120000000e+05
    6.9934852945e-05    1.0120000000e+05
    7.9952478700e-05    1.0120000000e+05
    8.9931701950e-05    1.0120000000e+05
    9.9934462924e-05    1.0120000000e+05
    1.0994528566e-04    1.0120000000e+05
    1.1995191744e-04    1.0120000000e+05
    1.2994401914e-04    1.0120000000e+05
    1.3998696522e-04    1.0120000000e+05
    1.4999583072e-04    1.0120000000e+05
    1.5995951253e-04    1.0120000000e+05
    1.6994717589e-04    1.0120000000e+05
    1.7995097733e-04    1.0120000000e+05
    1.8996365543e-04    1.0120000000e+05
    1.9997789059e-04    1.0120000000e+05
    2.0998540276e-04    1.0120000000e+05
    2.1997827571e-04    1.0120000000e+05
    2.2994879691e-04    1.0120000000e+05
    2.3997911194e-04    1.0120000000e+05
    2.4997314904e-04    1.0120000000e+05
    2.5992238079e-04    1.0120000000e+05
    2.6991218328e-04    1.0120000000e+05
    2.7993426193e-04    1.0120000000e+05
    2.8997362824e-04    1.0120000000e+05
    2.9992574127e-04    1.0120000000e+05
    3.0998291913e-04    1.0120000000e+05
    3.1994809979e-04    1.0120000000e+05
    3.2991630724e-04    1.0120000000e+05
    3.3998696017e-04    1.0120000000e+05
    3.4995615715e-04    1.0120000000e+05
    3.5992224002e-04    1.0120000000e+05
    3.6999012809e-04    1.0120000000e+05
    3.7994884769e-04    1.0120000000e+05
    3.8990014582e-04    1.0120000000e+05
    3.9994632243e-04    1.0120000000e+05
    4.0998708573e-04    1.0120000000e+05
    4.1990782483e-04    1.0120000000e+05
    4.2992492672e-04    1.0120000000e+05
    4.3992741848e-04    1.0120000000e+05
    4.4991387404e-04    1.0120000000e+05
    4.5999779832e-04    1.0120000000e+05
    4.6994964941e-04    1.0120000000e+05
    4.7999626258e-04    1.0120000000e+05
    4.8990466166e-04    1.0120000000e+05
    4.9990421394e-04    1.0120000000e+05
    5.0988106523e-04    1.0120000000e+05
    5.1995180547e-04    1.0120000000e+05
    5.2999617765e-04    1.0120000000e+05
    5.3988955915e-04    1.0120000000e+05
    5.4999586428e-04    1.0120000000e+05
    5.5994954892e-04    1.0120000000e+05
    5.6999525987e-04    1.0120000000e+05
    5.7987979380e-04    1.0120000000e+05
    5.8998307213e-04    1.0120000000e+05
    5.9992115712e-04    1.0120000000e+05
    6.0994498199e-04    1.0120000000e+05
    6.1993399868e-04    1.0120000000e+05
    6.2988098944e-04    1.0120000000e+05
    6.3991826028e-04    1.0120000000e+05
    6.4991146792e-04    1.0120000000e+05
    6.5999530489e-04    1.0120000000e+05
    6.6989491461e-04    1.0120000000e+05
    6.7987997318e-04    1.0120000000e+05
    6.8995775655e-04    1.0120000000e+05
    6.9998472463e-04    1.0120000000e+05
    7.0995860733e-04    1.0120000000e+05
    7.1987684350e-04    1.0120000000e+05
    7.2988256579e-04    1.0120000000e+05
    7.3997705476e-04    1.0120000000e+05
    7.4986525578e-04    1.0120000000e+05
    7.5998564716e-04    1.0120000000e+05
    7.6989788795e-04    1.0120000000e+05
    7.7989627607e-04    1.0120000000e+05
    7.8998191748e-04    1.0120000000e+05
    7.9984654440e-04    1.0120000000e+05
    8.0995156895e-04    1.0120000000e+05
    8.1998761743e-04    1.0120000000e+05
    8.2995154662e-04    1.0120000000e+05
    8.3984056255e-04    1.0120000000e+05
    8.4997486556e-04    1.0120000000e+05
    8.5986632621e-04    1.0120000000e+05
    8.6984538939e-04    1.0120000000e+05
    8.7990873726e-04    1.0120000000e+05
    8.8989036158e-04    1.0120000000e+05
    8.9995563030e-04    1.0120000000e+05
    9.0993591584e-04    1.0120000000e+05
    9.1999932192e-04    1.0120000000e+05
    9.2997413594e-04    1.0120000000e+05
    9.3985715648e-04    1.0120000000e+05
    9.4999629073e-04    1.0120000000e+05
    9.5986569067e-04    1.0120000000e+05
    9.6999312518e-04    1.0120000000e+05
    9.7984436434e-04    1.0120000000e+05
    9.8995340522e-04    1.0120000000e+05
    9.9995976780e-04    1.0120000000e+05
    1.0098671773e-03    1.0120000000e+05
    1.0198532837e-03    1.0120000000e+05
    1.0299193673e-03    1.0120000000e+05
    1.0398776503e-03    1.0120000000e+05
    1.0499147465e-03    1.0120000000e+05
    1.0598403169e-03    1.0120000000e+05
    1.0698437691e-03    1.0120000000e+05
    1.0799262673e-03    1.0120000000e+05
    1.0898924666e-03    1.0120000000e+05
    1.0999368969e-03    1.0120000000e+05
    1.1098609539e-03    1.0120000000e+05
    1.1198623106e-03    1.0120000000e+05
    1.1299413163e-03    1.0120000000e+05
    1.1398955248e-03    1.0120000000e+05
    1.1499268003e-03    1.0120000000e+05
    1.1598289711e-03    1.0120000000e+05
    1.1698071612e-03    1.0120000000e+05
    1.1798620690e-03    1.0120000000e+05
    1.1899949750e-03    1.0120000000e+05
    1.1999936542e-03    1.0120000000e+05
    1.2098536827e-03    1.0120000000e+05
    1.2197884498e-03    1.0120000000e+05
    1.2297991198e-03    1.0120000000e+05
    1.2398865074e-03    1.0120000000e+05
    1.2498298893e-03    1.0120000000e+05
    1.2598487083e-03    1.0120000000e+05
    1.2699442450e-03    1.0120000000e+05
    1.2798908865e-03    1.0120000000e+05
    1.2899131980e-03    1.0120000000e+05
    1.2997809099e-03    1.0120000000e+05
    1.3099514181e-03    1.0120000000e+05
    1.3199608075e-03    1.0120000000e+05
    1.3298101258e-03    1.0120000000e+05
    1.3399707386e-03    1.0120000000e+05
    1.3499713968e-03    1.0120000000e+05
    1.3598073274e-03    1.0120000000e+05
    1.3699589763e-03    1.0120000000e+05
    1.3799439184e-03    1.0120000000e+05
    1.3897593599e-03    1.0120000000e+05
    1.3999013463e-03    1.0120000000e+05
    1.4098753454e-03    1.0120000000e+05
    1.4199265279e-03    1.0120000000e+05
    1.4297995949e-03    1.0120000000e+05
    1.4397464693e-03    1.0120000000e+05
    1.4497691300e-03    1.0120000000e+05
    1.4598682756e-03    1.0120000000e+05
    1.4697830193e-03    1.0120000000e+05
    1.4797725016e-03    1.0120000000e+05
    1.4898381196e-03    1.0120000000e+05
    1.4999812702e-03    1.0120000000e+05
    1.5099328011e-03    1.0120000000e+05
    1.5199596528e-03    1.0120000000e+05
    1.5297897626e-03    1.0120000000e+05
    1.5399694676e-03    1.0120000000e+05
    1.5499504516e-03    1.0120000000e+05
    1.5597275924e-03    1.0120000000e+05
    1.5698603820e-03    1.0120000000e+05
    1.5797872329e-03    1.0120000000e+05
    1.5897899866e-03    1.0120000000e+05
    1.5998698073e-03    1.0120000000e+05
    1.6097367043e-03    1.0120000000e+05
    1.6199722886e-03    1.0120000000e+05
    1.6299928539e-03    1.0120000000e+05
    1.6397935105e-03    1.0120000000e+05
    1.6499687918e-03    1.0120000000e+05
    1.6599219525e-03    1.0120000000e+05
    1.6699518310e-03    1.0120000000e+05
    1.6797531862e-03    1.0120000000e+05
    1.6899391776e-03    1.0120000000e+05
    1.6998940846e-03    1.0120000000e+05
    1.7099266406e-03    1.0120000000e+05
    1.7197212437e-03    1.0120000000e+05
    1.7299110768e-03    1.0120000000e+05
    1.7398587661e-03    1.0120000000e+05
    1.7498808447e-03    1.0120000000e+05
    1.7599881394e-03    1.0120000000e+05
    1.7698471202e-03    1.0120000000e+05
    1.7797832843e-03    1.0120000000e+05
    1.7897984944e-03    1.0120000000e+05
    1.7998937983e-03    1.0120000000e+05
    1.8097306602e-03    1.0120000000e+05
    1.8199884798e-03    1.0120000000e+05
    1.8299851799e-03    1.0120000000e+05
    1.8397138920e-03    1.0120000000e+05
    1.8498711288e-03    1.0120000000e+05
    1.8597578164e-03    1.0120000000e+05
    1.8697243650e-03    1.0120000000e+05
    1.8797725206e-03    1.0120000000e+05
    1.8899035640e-03    1.0120000000e+05
    1.8997527659e-03    1.0120000000e+05
    1.9096814794e-03    1.0120000000e+05
    1.9196885405e-03    1.0120000000e+05
    1.9297834951e-03    1.0120000000e+05
    1.9399635494e-03    1.0120000000e+05
    1.9498490728e-03    1.0120000000e+05
    1.9598167855e-03    1.0120000000e+05
    1.9698683172e-03    1.0120000000e+05
    1.9796141423e-03    1.0120000000e+05
    1.9898358732e-03    1.0120000000e+05
    1.9997486379e-03    1.0120000000e+05
    2.0097459201e-03    1.0120000000e+05
    2.0198293496e-03    1.0120000000e+05
    2.0295924041e-03    1.0120000000e+05
    2.0398495253e-03    1.0120000000e+05
    2.0497799851e-03    1.0120000000e+05
    2.0598005503e-03    1.0120000000e+05
    2.0699100569e-03    1.0120000000e+05
    2.0796831232e-03    1.0120000000e+05
    2.0899714436e-03    1.0120000000e+05
    2.0999100525e-03    1.0120000000e+05
    2.1099152509e-03    1.0120000000e+05
    2.1199721377e-03    1.0120000000e+05
    2.1296336781e-03    1.0120000000e+05
    2.1397555247e-03    1.0120000000e+05
    2.1499015857e-03    1.0120000000e+05
    2.1596346051e-03    1.0120000000e+05
    2.1698521450e-03    1.0120000000e+05
    2.1796121728e-03    1.0120000000e+05
    2.1898159757e-03    1.0120000000e+05
    2.1995995194e-03    1.0120000000e+05
    2.2098161280e-03    1.0120000000e+05
    2.2195733618e-03    1.0120000000e+05
    2.2297890391e-03    1.0120000000e+05
    2.2399900481e-03    1.0120000000e+05
    2.2497570608e-03    1.0120000000e+05
    2.2599615622e-03    1.0120000000e+05
    2.2696955130e-03    1.0120000000e+05
    2.2798853461e-03    1.0120000000e+05
    2.2896279115e-03    1.0120000000e+05
    2.2997888736e-03    1.0120000000e+05
    2.3095579818e-03    1.0120000000e+05
    2.3197063711e-03    1.0120000000e+05
    2.3298773449e-03    1.0120000000e+05
    2.3396464530e-03    1.0120000000e+05
    2.3498006631e-03    1.0120000000e+05
    2.3599360138e-03    1.0120000000e+05
    2.3697265424e-03    1.0120000000e+05
    2.3799322080e-03    1.0120000000e+05
    2.3897239007e-03    1.0120000000e+05
    2.3999882396e-03    1.0120000000e+05
    2.4098292924e-03    1.0120000000e+05
    2.4196966551e-03    1.0120000000e+05
    2.4295628536e-03    1.0120000000e+05
    2.4399142712e-03    1.0120000000e+05
    2.4498121347e-03    1.0120000000e+05
    2.4597288575e-03    1.0120000000e+05
    2.4696579203e-03    1.0120000000e+05
    2.4795879144e-03    1.0120000000e+05
    2.4899535347e-03    1.0120000000e+05
    2.4998821318e-03    1.0120000000e+05
    2.5098044425e-03    1.0120000000e+05
    2.5196943898e-03    1.0120000000e+05
    2.5295603555e-03    1.0120000000e+05
    2.5398593862e-03    1.0120000000e+05
    2.5496620219e-03    1.0120000000e+05
    2.5598774664e-03    1.0120000000e+05
    2.5695965160e-03    1.0120000000e+05
    2.5796932168e-03    1.0120000000e+05
    2.5897126179e-03    1.0120000000e+05
    2.5996600743e-03    1.0120000000e+05
    2.6099660899e-03    1.0120000000e+05
    2.6197703555e-03    1.0120000000e+05
    2.6299264282e-03    1.0120000000e+05
    2.6395893656e-03    1.0120000000e+05
    2.6496003848e-03    1.0120000000e+05
    2.6599515695e-03    1.0120000000e+05
    2.6698128786e-03    1.0120000000e+05
    2.6796050370e-03    1.0120000000e+05
    2.6897315402e-03    1.0120000000e+05
    2.6997835375e-03    1.0120000000e+05
    2.7097619604e-03    1.0120000000e+05
    2.7196677402e-03    1.0120000000e+05
    2.7298931964e-03    1.0120000000e+05
    2.7396529913e-03    1.0120000000e+05
    2.7497289702e-03    1.0120000000e+05
    2.7597292792e-03    1.0120000000e+05
    2.7696555480e-03    1.0120000000e+05
    2.7798863593e-03    1.0120000000e+05
    2.7896638494e-03    1.0120000000e+05
    2.7997416910e-03    1.0120000000e+05
    2.8097431641e-03    1.0120000000e+05
    2.8196689673e-03    1.0120000000e+05
    2.8298830148e-03    1.0120000000e+05
    2.8396560811e-03    1.0120000000e+05
    2.8497136664e-03    1.0120000000e+05
    2.8596932534e-03    1.0120000000e+05
    2.8699468821e-03    1.0120000000e+05
    2.8797688428e-03    1.0120000000e+05
    2.8898608871e-03    1.0120000000e+05
    2.8998719063e-03    1.0120000000e+05
    2.9098019004e-03    1.0120000000e+05
    2.9199901037e-03    1.0120000000e+05
    2.9297582805e-03    1.0120000000e+05
    2.9397797771e-03    1.0120000000e+05
    2.9497179203e-03    1.0120000000e+05
    2.9598998372e-03    1.0120000000e+05
    2.9699930456e-03    1.0120000000e+05
    2.9799984768e-03    1.0120000000e+05
    2.9899163637e-03    1.0120000000e+05
    2.9997474048e-03    1.0120000000e+05
    3.0098045245e-03    1.0120000000e+05
    3.0197701417e-03    1.0120000000e+05
    3.0299513601e-03    1.0120000000e+05
    3.0397316441e-03    1.0120000000e+05
    3.0497219414e-03    1.0120000000e+05
    3.0599143356e-03    1.0120000000e+05
    3.0697092880e-03    1.0120000000e+05
    3.0799931847e-03    1.0120000000e+05
    3.0898801051e-03    1.0120000000e+05
    3.0999518931e-03    1.0120000000e+05
    3.1099156477e-03    1.0120000000e+05
    3.1197716016e-03    1.0120000000e+05
    3.1297968235e-03    1.0120000000e+05
    3.1399813015e-03    1.0120000000e+05
    3.1497750897e-03    1.0120000000e+05
    3.1599882059e-03    1.0120000000e+05
    3.1698094681e-03    1.0120000000e+05
    3.1797690317e-03    1.0120000000e+05
    3.1898559537e-03    1.0120000000e+05
    3.1998055056e-03    1.0120000000e+05
    3.2098668162e-03    1.0120000000e+05
    3.2197816763e-03    1.0120000000e+05
    3.2297910657e-03    1.0120000000e+05
    3.2398814801e-03    1.0120000000e+05
    3.2498054206e-03    1.0120000000e+05
    3.2597905956e-03    1.0120000000e+05
    3.2698221039e-03    1.0120000000e+05
    3.2798834145e-03    1.0120000000e+05
    3.2899575308e-03    1.0120000000e+05
    3.2998137176e-03    1.0120000000e+05
    3.3098603599e-03    1.0120000000e+05
    3.3198588062e-03    1.0120000000e+05
    3.3299797215e-03    1.0120000000e+05
    3.3399879467e-03    1.0120000000e+05
    3.3498515841e-03    1.0120000000e+05
    3.3598849550e-03    1.0120000000e+05
    3.3699974883e-03    1.0120000000e+05
    3.3799218945e-03    1.0120000000e+05
    3.3899929840e-03    1.0120000000e+05
    3.3999553416e-03    1.0120000000e+05
    3.4098937176e-03    1.0120000000e+05
    3.4199813381e-03    1.0120000000e+05
    3.4298743121e-03    1.0120000000e+05
    3.4399325959e-03    1.0120000000e+05
    3.4498900641e-03    1.0120000000e+05
    3.4598929342e-03    1.0120000000e+05
    3.4698483068e-03    1.0120000000e+05
    3.4798644483e-03    1.0120000000e+05
    3.4899411257e-03    1.0120000000e+05
    3.4998699557e-03    1.0120000000e+05
    3.5098877270e-03    1.0120000000e+05
    3.5198547412e-03    1.0120000000e+05
    3.5299814772e-03    1.0120000000e+05
    3.5398881882e-03    1.0120000000e+05
    3.5498524085e-03    1.0120000000e+05
    3.5599851981e-03    1.0120000000e+05
    3.5698206630e-03    1.0120000000e+05
    3.5799620673e-03    1.0120000000e+05
    3.5899875220e-03    1.0120000000e+05
    3.5999335814e-03    1.0120000000e+05
    3.6099324934e-03    1.0120000000e+05
    3.6198410671e-03    1.0120000000e+05
    3.6299966741e-03    1.0120000000e+05
    3.6398444790e-03    1.0120000000e+05
    3.6499390844e-03    1.0120000000e+05
    3.6599140149e-03    1.0120000000e+05
    3.6699355114e-03    1.0120000000e+05
    3.6798291840e-03    1.0120000000e+05
    3.6899796687e-03    1.0120000000e+05
    3.6999660078e-03    1.0120000000e+05
    3.7098061293e-03    1.0120000000e+05
    3.7198865321e-03    1.0120000000e+05
    3.7298384123e-03    1.0120000000e+05
    3.7398142740e-03    1.0120000000e+05
    3.7498448510e-03    1.0120000000e+05
    3.7599108182e-03    1.0120000000e+05
    3.7698184606e-03    1.0120000000e+05
    3.7799866404e-03    1.0120000000e+05
    3.7899524905e-03    1.0120000000e+05
    3.7999926135e-03    1.0120000000e+05
    3.8098332006e-03    1.0120000000e+05
    3.8199415430e-03    1.0120000000e+05
    3.8298661821e-03    1.0120000000e+05
    3.8398150355e-03    1.0120000000e+05
    3.8498255890e-03    1.0120000000e+05
    3.8598433603e-03    1.0120000000e+05
    3.8699230645e-03    1.0120000000e+05
    3.8797964808e-03    1.0120000000e+05
    3.8899155334e-03    1.0120000000e+05
    3.8998767268e-03    1.0120000000e+05
    3.9098253474e-03    1.0120000000e+05
    3.9198594168e-03    1.0120000000e+05
    3.9298851043e-03    1.0120000000e+05
    3.9399322122e-03    1.0120000000e+05
    3.9498419501e-03    1.0120000000e+05
    3.9599156007e-03    1.0120000000e+05
    3.9698760957e-03    1.0120000000e+05
    3.9798114449e-03    1.0120000000e+05
    3.9897672832e-03    1.0120000000e+05
    3.9998092689e-03    1.0120000000e+05
    4.0098098107e-03    1.0120000000e+05
    4.0198774077e-03    1.0120000000e+05
    4.0299771354e-03    1.0120000000e+05
    4.0398347192e-03    1.0120000000e+05
    4.0499954484e-03    1.0120000000e+05
    4.0599242784e-03    1.0120000000e+05
    4.0698782541e-03    1.0120000000e+05
    4.0798722766e-03    1.0120000000e+05
    4.0898760781e-03    1.0120000000e+05
    4.0999129415e-03    1.0120000000e+05
    4.1099702939e-03    1.0120000000e+05
    4.1198073886e-03    1.0120000000e+05
    4.1299113072e-03    1.0120000000e+05
    4.1397907771e-03    1.0120000000e+05
    4.1499272920e-03    1.0120000000e+05
    4.1598486714e-03    1.0120000000e+05
    4.1697816923e-03    1.0120000000e+05
    4.1799731553e-03    1.0120000000e+05
    4.1899387725e-03    1.0120000000e+05
    4.1999192908e-03    1.0120000000e+05
    4.2099109851e-03    1.0120000000e+05
    4.2199133895e-03    1.0120000000e+05
    4.2299269699e-03    1.0120000000e+05
    4.2399480008e-03    1.0120000000e+05
    4.2499769479e-03    1.0120000000e+05
    4.2597688735e-03    1.0120000000e+05
    4.2698089965e-03    1.0120000000e+05
    4.2798509821e-03    1.0120000000e+05
    4.2898948304e-03    1.0120000000e+05
    4.2999391444e-03    1.0120000000e+05
    4.3099834584e-03    1.0120000000e+05
    4.3197828345e-03    1.0120000000e+05
    4.3298271485e-03    1.0120000000e+05
    4.3398714624e-03    1.0120000000e+05
    4.3499153107e-03    1.0120000000e+05
    4.3599586934e-03    1.0120000000e+05
    4.3697566725e-03    1.0120000000e+05
    4.3797991239e-03    1.0120000000e+05
    4.3898406439e-03    1.0120000000e+05
    4.3998812325e-03    1.0120000000e+05
    4.4099204242e-03    1.0120000000e+05
    4.4199586846e-03    1.0120000000e+05
    4.4299960136e-03    1.0120000000e+05
    4.4397860765e-03    1.0120000000e+05
    4.4498210773e-03    1.0120000000e+05
    4.4598579407e-03    1.0120000000e+05
    4.4698934071e-03    1.0120000000e+05
    4.4799344614e-03    1.0120000000e+05
    4.4899811037e-03    1.0120000000e+05
    4.4997883961e-03    1.0120000000e+05
    4.5098457485e-03    1.0120000000e+05
    4.5199114829e-03    1.0120000000e+05
    4.5299879275e-03    1.0120000000e+05
    4.5398240909e-03    1.0120000000e+05
    4.5499107800e-03    1.0120000000e+05
    4.5597651042e-03    1.0120000000e+05
    4.5698722824e-03    1.0120000000e+05
    4.5799859799e-03    1.0120000000e+05
    4.5898598619e-03    1.0120000000e+05
    4.5999963768e-03    1.0120000000e+05
    4.6098860912e-03    1.0120000000e+05
    4.6197865158e-03    1.0120000000e+05
    4.6299449168e-03    1.0120000000e+05
    4.6398653649e-03    1.0120000000e+05
    4.6497844160e-03    1.0120000000e+05
    4.6599665657e-03    1.0120000000e+05
    4.6699102968e-03    1.0120000000e+05
    4.6798600815e-03    1.0120000000e+05
    4.6898107976e-03    1.0120000000e+05
    4.6997792087e-03    1.0120000000e+05
    4.7097522765e-03    1.0120000000e+05
    4.7199777327e-03    1.0120000000e+05
    4.7299582511e-03    1.0120000000e+05
    4.7399578616e-03    1.0120000000e+05
    4.7499598004e-03    1.0120000000e+05
    4.7599608079e-03    1.0120000000e+05
    4.7699767165e-03    1.0120000000e+05
    4.7799996100e-03    1.0120000000e+05
    4.7897784971e-03    1.0120000000e+05
    4.7998093069e-03    1.0120000000e+05
    4.8098606057e-03    1.0120000000e+05
    4.8199063167e-03    1.0120000000e+05
    4.8299641348e-03    1.0120000000e+05
    4.8397728242e-03    1.0120000000e+05
    4.8498525284e-03    1.0120000000e+05
    4.8599159345e-03    1.0120000000e+05
    4.8697507009e-03    1.0120000000e+05
    4.8798401840e-03    1.0120000000e+05
    4.8899487592e-03    1.0120000000e+05
    4.8997853883e-03    1.0120000000e+05
    4.9099028111e-03    1.0120000000e+05
    4.9197687767e-03    1.0120000000e+05
    4.9299001694e-03    1.0120000000e+05
    4.9397675321e-03    1.0120000000e+05
    4.9499082379e-03    1.0120000000e+05
    4.9597998150e-03    1.0120000000e+05
    4.9699582160e-03    1.0780725000e+05
    4.9798497930e-03    2.7851681250e+05
    4.9897627905e-03    2.7673825000e+05
    4.9999295734e-03    2.7517378125e+05
    5.0098584034e-03    2.7365850000e+05
    5.0197811797e-03    2.7215887500e+05
    5.0299656577e-03    2.7063481250e+05
    5.0399033353e-03    2.6916253125e+05
    5.0498554483e-03    2.6770240625e+05
    5.0598052330e-03    2.6625700000e+05
    5.0697643310e-03    2.6482437500e+05
    5.0799739547e-03    2.6337003125e+05
    5.0899460912e-03    2.6196360938e+05
    5.0999214873e-03    2.6057017188e+05
    5.1099015400e-03    2.5918957812e+05
    5.1198820584e-03    2.5782243750e+05
    5.1298723556e-03    2.5646712500e+05
    5.1398677751e-03    2.5512437500e+05
    5.1498729736e-03    2.5379304688e+05
    5.1598739810e-03    2.5247464062e+05
    5.1698843017e-03    2.5116768750e+05
    5.1798978820e-03    2.4987257812e+05
    5.1899198443e-03    2.4858882812e+05
    5.1999446005e-03    2.4731712500e+05
    5.2099740133e-03    2.4605695312e+05
    5.2197482437e-03    2.4484054688e+05
    5.2297879010e-03    2.4360248438e+05
    5.2398298867e-03    2.4237556250e+05
    5.2498830482e-03    2.4115898438e+05
    5.2599404007e-03    2.3995335938e+05
    5.2699991502e-03    2.3875893750e+05
    5.2797948010e-03    2.3760645312e+05
    5.2898530848e-03    2.3643375000e+05
    5.2999276668e-03    2.3527007812e+05
    5.3097568452e-03    2.3414507812e+05
    5.3198458627e-03    2.3300093750e+05
    5.3299320862e-03    2.3186757812e+05
    5.3397547454e-03    2.3077376562e+05
    5.3498344496e-03    2.2966154688e+05
    5.3599211387e-03    2.2855906250e+05
    5.3697582334e-03    2.2749404688e+05
    5.3798593581e-03    2.2641029688e+05
    5.3899576887e-03    2.2533629688e+05
    5.3997947834e-03    2.2429887500e+05
    5.4098889232e-03    2.2324348438e+05
    5.4199830629e-03    2.2219795312e+05
    5.4298164323e-03    2.2118910938e+05
    5.4399105720e-03    2.2016314062e+05
    5.4497481324e-03    2.1917207812e+05
    5.4598506540e-03    2.1816295312e+05
    5.4699550383e-03    2.1716229688e+05
    5.4797991179e-03    2.1619582812e+05
    5.4899007082e-03    2.1521300000e+05
    5.4997419938e-03    2.1426401562e+05
    5.5098417215e-03    2.1329860938e+05
    5.5199409835e-03    2.1234156250e+05
    5.5297813378e-03    2.1141704688e+05
    5.5398810655e-03    2.1047635938e+05
    5.5499807931e-03    2.0954404688e+05
    5.5598206818e-03    2.0864362500e+05
    5.5699199438e-03    2.0772748438e+05
    5.5797593668e-03    2.0684243750e+05
    5.5898576975e-03    2.0594179688e+05
    5.5999555625e-03    2.0504893750e+05
    5.6097945198e-03    2.0418642188e+05
    5.6198919192e-03    2.0330879688e+05
    5.6299888529e-03    2.0243873438e+05
    5.6398264132e-03    2.0159817188e+05
    5.6499228813e-03    2.0074270312e+05
    5.6597599760e-03    1.9991607812e+05
    5.6698559783e-03    1.9907481250e+05
    5.6799519807e-03    1.9824067188e+05
    5.6897890754e-03    1.9743470312e+05
    5.6998869404e-03    1.9661435938e+05
    5.7099852711e-03    1.9580079688e+05
    5.7198242284e-03    1.9501464062e+05
    5.7299206965e-03    1.9421448438e+05
    5.7397568598e-03    1.9344131250e+05
    5.7498509996e-03    1.9265435938e+05
    5.7599451393e-03    1.9187395312e+05
    5.7697794400e-03    1.9111989062e+05
    5.7798735797e-03    1.9035220312e+05
    5.7899709791e-03    1.8959067188e+05
    5.7998117991e-03    1.8885451562e+05
    5.8099115267e-03    1.8810520312e+05
    5.8197509497e-03    1.8738114062e+05
    5.8298488148e-03    1.8664401562e+05
    5.8399452828e-03    1.8591279688e+05
    5.8497828431e-03    1.8520587500e+05
    5.8598779142e-03    1.8448614062e+05
    5.8699748479e-03    1.8377218750e+05
    5.8798184618e-03    1.8308185938e+05
    5.8899209835e-03    1.8237910938e+05
    5.8997627348e-03    1.8169989062e+05
    5.9098624624e-03    1.8100829688e+05
    5.9199612588e-03    1.8032225000e+05
    5.9298034757e-03    1.7965893750e+05
    5.9399097227e-03    1.7898310938e+05
    5.9497565962e-03    1.7832970312e+05
    5.9598609805e-03    1.7766437500e+05
    5.9699648991e-03    1.7700437500e+05
    5.9798089787e-03    1.7636650000e+05
    5.9899156913e-03    1.7571679688e+05
    5.9997658245e-03    1.7508848438e+05
    6.0098734684e-03    1.7444867188e+05
    6.0199806467e-03    1.7381385938e+05
    6.0298270546e-03    1.7320018750e+05
    6.0399365611e-03    1.7257498438e+05
    6.0497894883e-03    1.7197031250e+05
    6.0599003918e-03    1.7135451562e+05
    6.0697509907e-03    1.7075910938e+05
    6.0798604973e-03    1.7015270312e+05
    6.0899737291e-03    1.6955073438e+05
    6.0998275876e-03    1.6896860938e+05
    6.1099403538e-03    1.6837571875e+05
    6.1197928153e-03    1.6780240625e+05
    6.1299065128e-03    1.6721834375e+05
    6.1397622339e-03    1.6665350000e+05
    6.1498763971e-03    1.6607825000e+05
    6.1599896289e-03    1.6550745312e+05
    6.1698448844e-03    1.6495543750e+05
    6.1799609102e-03    1.6439301562e+05
    6.1898170970e-03    1.6384906250e+05
    6.1999317259e-03    1.6329487500e+05
    6.2097879127e-03    1.6275882812e+05
    6.2199044041e-03    1.6221268750e+05
    6.2297610566e-03    1.6168460938e+05
    6.2398766167e-03    1.6114675000e+05
    6.2499926426e-03    1.6061293750e+05
    6.2598497607e-03    1.6009653125e+05
    6.2699657865e-03    1.5957028125e+05
    6.2798219733e-03    1.5906115625e+05
    6.2899379991e-03    1.5854237500e+05
    6.2997941859e-03    1.5804068750e+05
    6.3099092804e-03    1.5752968750e+05
    6.3197654672e-03    1.5703548438e+05
    6.3298805617e-03    1.5653192188e+05
    6.3399951905e-03    1.5603192188e+05
    6.3498504460e-03    1.5554815625e+05
    6.3599650748e-03    1.5505518750e+05
    6.3698198646e-03    1.5457840625e+05
    6.3799335621e-03    1.5409267188e+05
    6.3897878863e-03    1.5362282812e+05
    6.3999011181e-03    1.5314406250e+05
    6.4097549766e-03    1.5268084375e+05
    6.4198691398e-03    1.5220870312e+05
    6.4299856313e-03    1.5173985938e+05
    6.4398427494e-03    1.5128628125e+05
    6.4499578439e-03    1.5082412500e+05
    6.4598135650e-03    1.5037700000e+05
    6.4699277282e-03    1.4992126562e+05
    6.4797825180e-03    1.4948031250e+05
    6.4898966812e-03    1.4903093750e+05
    6.4997514710e-03    1.4859617188e+05
    6.5098656341e-03    1.4815306250e+05
    6.5199797973e-03    1.4771304688e+05
    6.5298345871e-03    1.4728729688e+05
    6.5399487503e-03    1.4685340625e+05
    6.5498026088e-03    1.4643360938e+05
    6.5599158406e-03    1.4600575000e+05
    6.5697687678e-03    1.4559175000e+05
    6.5798815340e-03    1.4516976562e+05
    6.5899943002e-03    1.4475070312e+05
    6.5998490900e-03    1.4434512500e+05
    6.6099641845e-03    1.4393165625e+05
    6.6198236309e-03    1.4353142188e+05
    6.6299433820e-03    1.4312339062e+05
    6.6398032941e-03    1.4272853125e+05
    6.6499221139e-03    1.4232606250e+05
    6.6597810946e-03    1.4193660938e+05
    6.6698989831e-03    1.4153962500e+05
    6.6797570325e-03    1.4115539062e+05
    6.6898735240e-03    1.4076373438e+05
    6.6999904811e-03    1.4037479688e+05
    6.7098508589e-03    1.3999832812e+05
    6.7199743353e-03    1.3961442188e+05
    6.7298384383e-03    1.3924267188e+05
    6.7399619147e-03    1.3886351562e+05
    6.7498250864e-03    1.3849654688e+05
    6.7599471658e-03    1.3812260938e+05
    6.7698122002e-03    1.3776075000e+05
    6.7799384706e-03    1.3739176562e+05
    6.7898058333e-03    1.3703448438e+05
    6.7999325693e-03    1.3667012500e+05
    6.8098031916e-03    1.3631734375e+05
    6.8199364468e-03    1.3595759375e+05
    6.8298131227e-03    1.3560928125e+05
    6.8399491720e-03    1.3525415625e+05
    6.8498332985e-03    1.3491015625e+05
    6.8599819206e-03    1.3455918750e+05
    6.8698804826e-03    1.3421914062e+05
    6.8797846325e-03    1.3388104688e+05
    6.8899490871e-03    1.3353639062e+05
    6.8998634815e-03    1.3320239062e+05
    6.9097862579e-03    1.3287025000e+05
    6.9199874997e-03    1.3253106250e+05
    6.9299302995e-03    1.3220259375e+05
    6.9398726337e-03    1.3187621875e+05
    6.9498270750e-03    1.3155151562e+05
    6.9597950205e-03    1.3122842188e+05
    6.9697736762e-03    1.3090703906e+05
    6.9797527976e-03    1.3058774219e+05
    6.9899922237e-03    1.3026230469e+05
    6.9999867119e-03    1.2994678906e+05
    7.0099951699e-03    1.2963275781e+05
    7.0197475143e-03    1.2932858594e+05
    7.0297601633e-03    1.2901807031e+05
    7.0397746749e-03    1.2870952344e+05
    7.0498045534e-03    1.2840260156e+05
    7.0598502643e-03    1.2809732031e+05
    7.0699006319e-03    1.2779388281e+05
    7.0799472742e-03    1.2749236719e+05
    7.0899911225e-03    1.2719271094e+05
    7.0997835137e-03    1.2690225000e+05
    7.1098632179e-03    1.2660518750e+05
    7.1199457161e-03    1.2630993750e+05
    7.1297623217e-03    1.2602431250e+05
    7.1398415603e-03    1.2573289844e+05
    7.1499319747e-03    1.2544308594e+05
    7.1597737260e-03    1.2516208594e+05
    7.1698864922e-03    1.2487500000e+05
    7.1797375567e-03    1.2459702344e+05
    7.1898577735e-03    1.2431327344e+05
    7.1999863721e-03    1.2403109375e+05
    7.2098569945e-03    1.2375786719e+05
    7.2199963033e-03    1.2347890625e+05
    7.2298804298e-03    1.2320864844e+05
    7.2397692129e-03    1.2293984375e+05
    7.2499313392e-03    1.2266532031e+05
    7.2598312981e-03    1.2239949219e+05
    7.2699957527e-03    1.2212821094e+05
    7.2799064219e-03    1.2186528906e+05
    7.2898310609e-03    1.2160356250e+05
    7.2997570969e-03    1.2134340625e+05
    7.3099541478e-03    1.2107786719e+05
    7.3198843747e-03    1.2082091406e+05
    7.3298197240e-03    1.2056543750e+05
    7.3397709057e-03    1.2031103906e+05
    7.3497323319e-03    1.2005774219e+05
    7.3599591851e-03    1.1979903906e+05
    7.3699122295e-03    1.1954861719e+05
    7.3798731901e-03    1.1929953906e+05
    7.3898462579e-03    1.1905202344e+05
    7.3998305015e-03    1.1880636719e+05
    7.4098207988e-03    1.1856266406e+05
    7.4198031798e-03    1.1832084375e+05
    7.4297836982e-03    1.1808000000e+05
    7.4397791177e-03    1.1783900781e+05
    7.4497903697e-03    1.1759752344e+05
    7.4598048814e-03    1.1735633594e+05
    7.4698226526e-03    1.1711647656e+05
    7.4798357673e-03    1.1687935156e+05
    7.4898512103e-03    1.1664565625e+05
    7.4998806231e-03    1.1641541406e+05
    7.5099198148e-03    1.1618814844e+05
    7.5199650601e-03    1.1596242969e+05
    7.5297397561e-03    1.1574252344e+05
    7.5397840701e-03    1.1551464844e+05
    7.5498274527e-03    1.1528425781e+05
    7.5598829426e-03    1.1505192969e+05
    7.5699528679e-03    1.1481956250e+05
    7.5797531754e-03    1.1459584375e+05
    7.5898263603e-03    1.1437035156e+05
    7.5998990797e-03    1.1415078125e+05
    7.6099704020e-03    1.1393758594e+05
    7.6197795570e-03    1.1373505469e+05
    7.6298797503e-03    1.1352928906e+05
    7.6399762183e-03    1.1332277344e+05
    7.6497984119e-03    1.1311797656e+05
    7.6598972082e-03    1.1290206250e+05
    7.6699997298e-03    1.1268161719e+05
    7.6798377559e-03    1.1246513281e+05
    7.6899616979e-03    1.1224324219e+05
    7.6998071745e-03    1.1203028906e+05
    7.7099278569e-03    1.1181539844e+05
    7.7197817154e-03    1.1161047656e+05
    7.7299131081e-03    1.1140428906e+05
    7.7397809364e-03    1.1120781250e+05
    7.7499323525e-03    1.1100991406e+05
    7.7598048374e-03    1.1082097656e+05
    7.7699474059e-03    1.1062922656e+05
    7.7798273414e-03    1.1044308594e+05
    7.7899871394e-03    1.1025064844e+05
    7.7998777851e-03    1.1006143750e+05
    7.8097810037e-03    1.0987010156e+05
    7.8199543059e-03    1.0967231250e+05
    7.8298449516e-03    1.0947961719e+05
    7.8397458419e-03    1.0928694531e+05
    7.8499373049e-03    1.0908909375e+05
    7.8598503023e-03    1.0889732031e+05
    7.8697679564e-03    1.0870634375e+05
    7.8799575567e-03    1.0851130469e+05
    7.8898733482e-03    1.0832287500e+05
    7.8997975215e-03    1.0813575000e+05
    7.9097347334e-03    1.0795010156e+05
    7.9199578613e-03    1.0776133594e+05
    7.9299025238e-03    1.0758028906e+05
    7.9398462549e-03    1.0740187500e+05
    7.9497788101e-03    1.0722600781e+05
    7.9597244039e-03    1.0705177344e+05
    7.9699642956e-03    1.0687378125e+05
    7.9799313098e-03    1.0670122656e+05
    7.9898973927e-03    1.0652883594e+05
    7.9998681322e-03    1.0635617969e+05
    8.0098323524e-03    1.0618352344e+05
    8.0197881907e-03    1.0601122656e+05
    8.0297626555e-03    1.0583925781e+05
    8.0397520214e-03    1.0566803125e+05
    8.0497432500e-03    1.0549803125e+05
    8.0597307533e-03    1.0532939844e+05
    8.0697238445e-03    1.0516177344e+05
    8.0799860880e-03    1.0499057031e+05
    8.0899745226e-03    1.0482478906e+05
    8.0999759957e-03    1.0465959375e+05
    8.1099839881e-03    1.0449521094e+05
    8.1199994311e-03    1.0433164844e+05
    8.1297354773e-03    1.0417344531e+05
    8.1397546455e-03    1.0401149219e+05
    8.1497719511e-03    1.0385055469e+05
    8.1597911194e-03    1.0369075781e+05
    8.1698074937e-03    1.0353207031e+05
    8.1798341125e-03    1.0337403125e+05
    8.1898774952e-03    1.0321637500e+05
    8.1999218091e-03    1.0305946094e+05
    8.2099717110e-03    1.0290333594e+05
    8.2197450101e-03    1.0275244531e+05
    8.2297949120e-03    1.0259822656e+05
    8.2398308441e-03    1.0244514844e+05
    8.2498798147e-03    1.0229271875e+05
    8.2599492744e-03    1.0214081250e+05
    8.2697346807e-03    1.0199397656e+05
    8.2798060030e-03    1.0184365625e+05
    8.2898801193e-03    1.0169403906e+05
    8.2999495789e-03    1.0154515625e+05
    8.3097340539e-03    1.0140103125e+05
    8.3198072389e-03    1.0125312500e+05
    8.3298971877e-03    1.0110537500e+05
    8.3399871364e-03    1.0095800781e+05
    8.3497995511e-03    1.0081508594e+05
    8.3598969504e-03    1.0066839844e+05
    8.3697214723e-03    1.0052600000e+05
    8.3798253909e-03    1.0037992969e+05
    8.3899358287e-03    1.0023435156e+05
    8.3997696638e-03    1.0009360156e+05
    8.4098894149e-03    9.9949914062e+04
    8.4197204560e-03    9.9811695312e+04
    8.4298355505e-03    9.9671148438e+04
    8.4399720654e-03    9.9532101562e+04
    8.4498310462e-03    9.9398593750e+04
    8.4599703550e-03    9.9263132812e+04
    8.4698293358e-03    9.9133210938e+04
    8.4799779579e-03    9.9001039062e+04
    8.4898388013e-03    9.8873617188e+04
    8.4999790415e-03    9.8742898438e+04
    8.5098547861e-03    9.8615164062e+04
    8.5197435692e-03    9.8486320312e+04
    8.5299136117e-03    9.8352648438e+04
    8.5397996008e-03    9.8221914062e+04
    8.5499780253e-03    9.8087187500e+04
    8.5598714650e-03    9.7956742188e+04
    8.5697630420e-03    9.7827273438e+04
    8.5799423978e-03    9.7695273438e+04
    8.5898516700e-03    9.7567960938e+04
    8.5997749120e-03    9.7441617188e+04
    8.6099794134e-03    9.7312773438e+04
    8.6199026555e-03    9.7188273438e+04
    8.6298268288e-03    9.7064375000e+04
    8.6397519335e-03    9.6941156250e+04
    8.6499601603e-03    9.6815460938e+04
    8.6598917842e-03    9.6694429688e+04
    8.6698438972e-03    9.6574648438e+04
    8.6798034608e-03    9.6456414062e+04
    8.6897592992e-03    9.6339726562e+04
    8.6999991909e-03    9.6220710938e+04
    8.7099559605e-03    9.6105164062e+04
    8.7199043483e-03    9.5989023438e+04
    8.7298545986e-03    9.5871500000e+04
    8.7398318574e-03    9.5752226562e+04
    8.7498249486e-03    9.5631789062e+04
    8.7598180398e-03    9.5511210938e+04
    8.7698139250e-03    9.5391398438e+04
    8.7798116729e-03    9.5273164062e+04
    8.7898047641e-03    9.5157273438e+04
    8.7997922674e-03    9.5044164062e+04
    8.8097853586e-03    9.4933750000e+04
    8.8197886944e-03    9.4825523438e+04
    8.8297948241e-03    9.4718585938e+04
    8.8397981599e-03    9.4611750000e+04
    8.8498061523e-03    9.4503875000e+04
    8.8598150760e-03    9.4394289062e+04
    8.8698202744e-03    9.4282976562e+04
    8.8798217475e-03    9.4170414062e+04
    8.8898269460e-03    9.4057492188e+04
    8.8998414576e-03    9.3945164062e+04
    8.9098606259e-03    9.3834414062e+04
    8.9198900387e-03    9.3725742188e+04
    8.9299185202e-03    9.3619382812e+04
    8.9399451390e-03    9.3515335938e+04
    8.9499680325e-03    9.3413289062e+04
    8.9599899948e-03    9.3312507812e+04
    8.9697400108e-03    9.3214750000e+04
    8.9797899127e-03    9.3113507812e+04
    8.9898407459e-03    9.3011164062e+04
    8.9999064803e-03    9.2907101562e+04
    9.0099815279e-03    9.2801320312e+04
    9.0197687969e-03    9.2697718750e+04
    9.0298457071e-03    9.2591539062e+04
    9.0399188921e-03    9.2487148438e+04
    9.0499920771e-03    9.2385148438e+04
    9.0597774833e-03    9.2288601562e+04
    9.0698469430e-03    9.2191960938e+04
    9.0799219906e-03    9.2097679688e+04
    9.0897139162e-03    9.2007226562e+04
    9.0997945517e-03    9.1913343750e+04
    9.1098770499e-03    9.1816914062e+04
    9.1199586168e-03    9.1717539062e+04
    9.1297505423e-03    9.1619195312e+04
    9.1398283839e-03    9.1517898438e+04
    9.1499043629e-03    9.1418085938e+04
    9.1599831358e-03    9.1320750000e+04
    9.1697750613e-03    9.1229085938e+04
    9.1798575595e-03    9.1137742188e+04
    9.1899400577e-03    9.1048929688e+04
    9.1997347772e-03    9.0963710938e+04
    9.2098163441e-03    9.0875148438e+04
    9.2198960483e-03    9.0784117188e+04
    9.2299738899e-03    9.0690187500e+04
    9.2397686094e-03    9.0596960938e+04
    9.2498520389e-03    9.0500617188e+04
    9.2599382624e-03    9.0405750000e+04
    9.2697367072e-03    9.0316460938e+04
    9.2798247933e-03    9.0228226562e+04
    9.2899082229e-03    9.0143398438e+04
    9.2999925837e-03    9.0060492188e+04
    9.3097956851e-03    8.9979804688e+04
    9.3198921531e-03    8.9894726562e+04
    9.3299932778e-03    8.9806617188e+04
    9.3398084864e-03    8.9718500000e+04
    9.3499114737e-03    8.9626687500e+04
    9.3597201630e-03    8.9538335938e+04
    9.3698240817e-03    8.9449875000e+04
    9.3799298629e-03    8.9365148438e+04
    9.3897432089e-03    8.9286492188e+04
    9.3998555094e-03    8.9207835938e+04
    9.4099743292e-03    8.9129179688e+04
    9.4198063016e-03    8.9050601562e+04
    9.4299279153e-03    8.8966414062e+04
    9.4397589564e-03    8.8882093750e+04
    9.4498777762e-03    8.8794570312e+04
    9.4599938020e-03    8.8708531250e+04
    9.4698201865e-03    8.8627906250e+04
    9.4799352810e-03    8.8548523438e+04
    9.4897607341e-03    8.8474351562e+04
    9.4998767599e-03    8.8399414062e+04
    9.5099937171e-03    8.8323710938e+04
    9.5198238268e-03    8.8247757812e+04
    9.5299426466e-03    8.8166617188e+04
    9.5397718251e-03    8.8085898438e+04
    9.5498887822e-03    8.8002882812e+04
    9.5597160980e-03    8.7924492188e+04
    9.5698321238e-03    8.7847414062e+04
    9.5799462870e-03    8.7773804688e+04
    9.5897717401e-03    8.7704101562e+04
    9.5998849720e-03    8.7632117188e+04
    9.6099982038e-03    8.7558156250e+04
    9.6198217943e-03    8.7483757812e+04
    9.6299340948e-03    8.7405179688e+04
    9.6397567540e-03    8.7328562500e+04
    9.6498681232e-03    8.7251437500e+04
    9.6599794924e-03    8.7177531250e+04
    9.6698002890e-03    8.7108867188e+04
    9.6799107268e-03    8.7040085938e+04
    9.6897315234e-03    8.6973187500e+04
    9.6998400986e-03    8.6902554688e+04
    9.7099496052e-03    8.6829539062e+04
    9.7197676077e-03    8.6756984375e+04
    9.7298789769e-03    8.6682187500e+04
    9.7399903461e-03    8.6609109375e+04
    9.7498130053e-03    8.6540843750e+04
    9.7599253058e-03    8.6473328125e+04
    9.7697488964e-03    8.6409265625e+04
    9.7798602656e-03    8.6343023438e+04
    9.7899734974e-03    8.6274914062e+04
    9.7998036072e-03    8.6206593750e+04
    9.8099242896e-03    8.6135117188e+04
    9.8197571933e-03    8.6066273438e+04
    9.8298834637e-03    8.5997468750e+04
    9.8397219554e-03    8.5933148438e+04
    9.8498538136e-03    8.5868875000e+04
    9.8599931225e-03    8.5805148438e+04
    9.8698390648e-03    8.5742398438e+04
    9.8799960688e-03    8.5675960938e+04
    9.8898625001e-03    8.5610093750e+04
    9.8997391760e-03    8.5544054688e+04
    9.9099185318e-03    8.5477335938e+04
    9.9198073149e-03    8.5414554688e+04
    9.9297091365e-03    8.5353484375e+04
    9.9399127066e-03    8.5291492188e+04
    9.9498303607e-03    8.5230960938e+04
    9.9597536027e-03    8.5169218750e+04
    9.9699916318e-03    8.5104187500e+04
    9.9799642339e-03    8.5040492188e+04
    9.9899731576e-03    8.4977546875e+04
    9.9997175857e-03    8.4918031250e+04
    1.0009771213e-02    8.4858281250e+04
    1.0019829497e-02    8.4799273438e+04
    1.0029894300e-02    8.4740062500e+04
    1.0039961897e-02    8.4680101562e+04
    1.0049744509e-02    8.4621171875e+04
    1.0059828870e-02    8.4560171875e+04
    1.0069943964e-02    8.4499500000e+04
    1.0079793632e-02    8.4441601562e+04
    1.0089971125e-02    8.4383250000e+04
    1.0099875741e-02    8.4327367188e+04
    1.0109798051e-02    8.4271312500e+04
    1.0119723156e-02    8.4214453125e+04
    1.0129952803e-02    8.4155132812e+04
    1.0139883496e-02    8.4097531250e+04
    1.0149830952e-02    8.4040617188e+04
    1.0159838013e-02    8.3984554688e+04
    1.0169956833e-02    8.3928937500e+04
    1.0179929435e-02    8.3874523438e+04
    1.0189778171e-02    8.3820578125e+04
    1.0199834593e-02    8.3765226562e+04
    1.0209776461e-02    8.3710554688e+04
    1.0219926015e-02    8.3655078125e+04
    1.0229935870e-02    8.3600843750e+04
    1.0239783674e-02    8.3548093750e+04
    1.0249808431e-02    8.3495015625e+04
    1.0259640403e-02    8.3443359375e+04
    1.0269634426e-02    8.3391015625e+04
    1.0279785842e-02    8.3337875000e+04
    1.0289710015e-02    8.3285875000e+04
    1.0299779475e-02    8.3233140625e+04
    1.0309992358e-02    8.3180101562e+04
    1.0319947265e-02    8.3129156250e+04
    1.0329627432e-02    8.3080164062e+04
    1.0339840315e-02    8.3028703125e+04
    1.0349767283e-02    8.2978703125e+04
    1.0359814391e-02    8.2928109375e+04
    1.0369983502e-02    8.2876976562e+04
    1.0379835963e-02    8.2827679688e+04
    1.0389788076e-02    8.2778343750e+04
    1.0399837978e-02    8.2729109375e+04
    1.0409988463e-02    8.2679890625e+04
    1.0419793427e-02    8.2632515625e+04
    1.0429687798e-02    8.2584554688e+04
    1.0439655744e-02    8.2536132812e+04
    1.0449678637e-02    8.2487781250e+04
    1.0459749959e-02    8.2440031250e+04
    1.0469861329e-02    8.2392796875e+04
    1.0479554534e-02    8.2347515625e+04
    1.0489746928e-02    8.2299679688e+04
    1.0499984957e-02    8.2251781250e+04
    1.0509815067e-02    8.2206281250e+04
    1.0519683361e-02    8.2161070312e+04
    1.0529590771e-02    8.2115953125e+04
    1.0539557785e-02    8.2070812500e+04
    1.0549558327e-02    8.2025804688e+04
    1.0559614748e-02    8.1980835938e+04
    1.0569734499e-02    8.1935765625e+04
    1.0579851456e-02    8.1890750000e+04
    1.0589558631e-02    8.1847617188e+04
    1.0599798523e-02    8.1802703125e+04
    1.0609557852e-02    8.1760117188e+04
    1.0619898327e-02    8.1715367188e+04
    1.0629736818e-02    8.1672828125e+04
    1.0639627464e-02    8.1630375000e+04
    1.0649592616e-02    8.1587953125e+04
    1.0659534484e-02    8.1545578125e+04
    1.0669581592e-02    8.1503218750e+04
    1.0679669678e-02    8.1460679688e+04
    1.0689707473e-02    8.1418710938e+04
    1.0699830949e-02    8.1376718750e+04
    1.0709481314e-02    8.1336843750e+04
    1.0719643906e-02    8.1295015625e+04
    1.0729863308e-02    8.1253750000e+04
    1.0739614256e-02    8.1214359375e+04
    1.0749941692e-02    8.1172726562e+04
    1.0759788565e-02    8.1133445312e+04
    1.0769650340e-02    8.1094140625e+04
    1.0779593140e-02    8.1055164062e+04
    1.0789526626e-02    8.1016101562e+04
    1.0799511336e-02    8.0977335938e+04
    1.0809944943e-02    8.0936398438e+04
    1.0819923133e-02    8.0897898438e+04
    1.0829923674e-02    8.0859390625e+04
    1.0839473456e-02    8.0822976562e+04
    1.0849569924e-02    8.0784765625e+04
    1.0859674774e-02    8.0746726562e+04
    1.0869835503e-02    8.0708429688e+04
    1.0879475623e-02    8.0672734375e+04
    1.0889643803e-02    8.0635070312e+04
    1.0899890214e-02    8.0597523438e+04
    1.0909559205e-02    8.0562125000e+04
    1.0919841006e-02    8.0524664062e+04
    1.0929574259e-02    8.0489562500e+04
    1.0939869098e-02    8.0452648438e+04
    1.0949649848e-02    8.0417968750e+04
    1.0959929787e-02    8.0381539062e+04
    1.0969605297e-02    8.0347445312e+04
    1.0979684070e-02    8.0312093750e+04
    1.0989554226e-02    8.0277656250e+04
    1.0999608785e-02    8.0242757812e+04
    1.1009762995e-02    8.0207718750e+04
    1.1019978672e-02    8.0172750000e+04
    1.1029778980e-02    8.0139500000e+04
    1.1039597914e-02    8.0106453125e+04
    1.1049792171e-02    8.0072289062e+04
    1.1059882119e-02    8.0038585938e+04
    1.1069825850e-02    8.0005570312e+04
    1.1079914868e-02    7.9972367188e+04
    1.1089720763e-02    7.9940390625e+04
    1.1099779978e-02    7.9907796875e+04
    1.1109895073e-02    7.9875218750e+04
    1.1119843461e-02    7.9843304688e+04
    1.1129812337e-02    7.9811445312e+04
    1.1139924638e-02    7.9779328125e+04
    1.1149999686e-02    7.9747585938e+04
    1.1159967631e-02    7.9716640625e+04
    1.1169981211e-02    7.9685703125e+04
    1.1179970577e-02    7.9654968750e+04
    1.1189995334e-02    7.9624304688e+04
    1.1199989356e-02    7.9594007812e+04
    1.1209923774e-02    7.9564148438e+04
    1.1219927110e-02    7.9534226562e+04
    1.1229907162e-02    7.9504546875e+04
    1.1239944957e-02    7.9474929688e+04
    1.1249867268e-02    7.9445875000e+04
    1.1259834282e-02    7.9416843750e+04
    1.1269825511e-02    7.9387953125e+04
    1.1279835366e-02    7.9359226562e+04
    1.1289843358e-02    7.9330773438e+04
    1.1299791746e-02    7.9302625000e+04
    1.1309877038e-02    7.9274257812e+04
    1.1319858022e-02    7.9246312500e+04
    1.1329923756e-02    7.9218351562e+04
    1.1339851655e-02    7.9191031250e+04
    1.1349836364e-02    7.9163796875e+04
    1.1359883472e-02    7.9136570312e+04
    1.1369984597e-02    7.9109273438e+04
    1.1379889213e-02    7.9082664062e+04
    1.1389846914e-02    7.9056203125e+04
    1.1399835348e-02    7.9029976562e+04
    1.1409858242e-02    7.9003875000e+04
    1.1419919319e-02    7.8977750000e+04
    1.1429766193e-02    7.8952296875e+04
    1.1439883150e-02    7.8926382812e+04
    1.1449781246e-02    7.8901304688e+04
    1.1459956877e-02    7.8875703125e+04
    1.1469899677e-02    7.8850789062e+04
    1.1479873210e-02    7.8825960938e+04
    1.1489868164e-02    7.8801289062e+04
    1.1499876156e-02    7.8776757812e+04
    1.1509916745e-02    7.8752257812e+04
    1.1519949883e-02    7.8727945312e+04
    1.1529786512e-02    7.8704414062e+04
    1.1539864354e-02    7.8680570312e+04
    1.1549958028e-02    7.8656859375e+04
    1.1559829116e-02    7.8633820312e+04
    1.1569960974e-02    7.8610375000e+04
    1.1579874903e-02    7.8587593750e+04
    1.1589770205e-02    7.8565007812e+04
    1.1599969119e-02    7.8541968750e+04
    1.1609928682e-02    7.8519671875e+04
    1.1619871482e-02    7.8497585938e+04
    1.1629846878e-02    7.8475578125e+04
    1.1639855802e-02    7.8453687500e+04
    1.1649869382e-02    7.8432000000e+04
    1.1659881100e-02    7.8410515625e+04
    1.1669934727e-02    7.8389078125e+04
    1.1679753661e-02    7.8368203125e+04
    1.1689806357e-02    7.8346921875e+04
    1.1699888855e-02    7.8325812500e+04
    1.1709753424e-02    7.8305453125e+04
    1.1719861068e-02    7.8284828125e+04
    1.1729970574e-02    7.8264343750e+04
    1.1739868671e-02    7.8244429688e+04
    1.1749780737e-02    7.8224679688e+04
    1.1759934947e-02    7.8204687500e+04
    1.1769853532e-02    7.8185351562e+04
    1.1779801920e-02    7.8166109375e+04
    1.1789745651e-02    7.8147007812e+04
    1.1799943633e-02    7.8127562500e+04
    1.1809922755e-02    7.8108703125e+04
    1.1819913983e-02    7.8090000000e+04
    1.1829904281e-02    7.8071421875e+04
    1.1839907616e-02    7.8052929688e+04
    1.1849937961e-02    7.8034593750e+04
    1.1859964579e-02    7.8016523438e+04
    1.1869991198e-02    7.7998742188e+04
    1.1879781261e-02    7.7981585938e+04
    1.1889846995e-02    7.7964070312e+04
    1.1899915524e-02    7.7946632812e+04
    1.1909988709e-02    7.7929335938e+04
    1.1919823475e-02    7.7912664062e+04
    1.1929921806e-02    7.7895703125e+04
    1.1939765885e-02    7.7879281250e+04
    1.1949882843e-02    7.7862531250e+04
    1.1959752999e-02    7.7846335938e+04
    1.1969886720e-02    7.7829898438e+04
    1.1979764327e-02    7.7814085938e+04
    1.1989920400e-02    7.7798023438e+04
    1.1999822222e-02    7.7782554688e+04
    1.2009988539e-02    7.7766914062e+04
    1.2019900605e-02    7.7751859375e+04
    1.2029827572e-02    7.7736906250e+04
    1.2039761059e-02    7.7722046875e+04
    1.2049957179e-02    7.7706929688e+04
    1.2059902772e-02    7.7692320312e+04
    1.2069854885e-02    7.7677820312e+04
    1.2079815380e-02    7.7663500000e+04
    1.2089781463e-02    7.7649437500e+04
    1.2099754065e-02    7.7635601562e+04
    1.2109998614e-02    7.7621523438e+04
    1.2119980529e-02    7.7607921875e+04
    1.2129975483e-02    7.7594453125e+04
    1.2139976025e-02    7.7581117188e+04
    1.2149979360e-02    7.7567906250e+04
    1.2159989215e-02    7.7554851562e+04
    1.2169741094e-02    7.7542312500e+04
    1.2179766782e-02    7.7529570312e+04
    1.2189795263e-02    7.7517015625e+04
    1.2199827470e-02    7.7504757812e+04
    1.2209864333e-02    7.7492718750e+04
    1.2219905853e-02    7.7480718750e+04
    1.2229953893e-02    7.7468750000e+04
    1.2239742093e-02    7.7457218750e+04
    1.2249798514e-02    7.7445554688e+04
    1.2259860523e-02    7.7434054688e+04
    1.2269927189e-02    7.7422734375e+04
    1.2279735878e-02    7.7411890625e+04
    1.2289809063e-02    7.7400945312e+04
    1.2299885042e-02    7.7390187500e+04
    1.2309960090e-02    7.7379578125e+04
    1.2319777161e-02    7.7369390625e+04
    1.2329866178e-02    7.7359101562e+04
    1.2339959852e-02    7.7348976562e+04
    1.2349793687e-02    7.7339171875e+04
    1.2359895743e-02    7.7329148438e+04
    1.2369999662e-02    7.7319289062e+04
    1.2379836291e-02    7.7309992188e+04
    1.2389938347e-02    7.7300726562e+04
    1.2399774045e-02    7.7291882812e+04
    1.2409876101e-02    7.7282906250e+04
    1.2419977225e-02    7.7274007812e+04
    1.2429813854e-02    7.7265445312e+04
    1.2439917773e-02    7.7256789062e+04
    1.2449757196e-02    7.7248523438e+04
    1.2459863909e-02    7.7240210938e+04
    1.2469970621e-02    7.7232093750e+04
    1.2479812838e-02    7.7224453125e+04
    1.2489922345e-02    7.7216820312e+04
    1.2499765493e-02    7.7209453125e+04
    1.2509875000e-02    7.7201914062e+04
    1.2519984506e-02    7.7194492188e+04
    1.2529828586e-02    7.7187460938e+04
    1.2539938092e-02    7.7180453125e+04
    1.2549781241e-02    7.7173835938e+04
    1.2559891678e-02    7.7167250000e+04
    1.2569735758e-02    7.7161007812e+04
    1.2579847127e-02    7.7154734375e+04
    1.2589959428e-02    7.7148546875e+04
    1.2599805370e-02    7.7142585938e+04
    1.2609918602e-02    7.7136562500e+04
    1.2619765475e-02    7.7130859375e+04
    1.2629880570e-02    7.7125242188e+04
    1.2639995664e-02    7.7119914062e+04
    1.2649844401e-02    7.7114992188e+04
    1.2659960426e-02    7.7110039062e+04
    1.2669810094e-02    7.7105210938e+04
    1.2679927051e-02    7.7100312500e+04
    1.2689778581e-02    7.7095789062e+04
    1.2699895538e-02    7.7091382812e+04
    1.2709748000e-02    7.7087187500e+04
    1.2719865888e-02    7.7082984375e+04
    1.2729982845e-02    7.7079046875e+04
    1.2739835307e-02    7.7075468750e+04
    1.2749953195e-02    7.7071843750e+04
    1.2759805657e-02    7.7068296875e+04
    1.2769925408e-02    7.7064781250e+04
    1.2779780664e-02    7.7061601562e+04
    1.2789906003e-02    7.7058570312e+04
    1.2799769640e-02    7.7055835938e+04
    1.2809905224e-02    7.7053234375e+04
    1.2819773518e-02    7.7050835938e+04
    1.2829907238e-02    7.7048453125e+04
    1.2839772739e-02    7.7046210938e+04
    1.2849903665e-02    7.7044031250e+04
    1.2859768234e-02    7.7042101562e+04
    1.2869898230e-02    7.7040375000e+04
    1.2879763730e-02    7.7038945312e+04
    1.2889899313e-02    7.7037640625e+04
    1.2899771333e-02    7.7036468750e+04
    1.2909909710e-02    7.7035296875e+04
    1.2919780798e-02    7.7034187500e+04
    1.2929918244e-02    7.7033203125e+04
    1.2939789332e-02    7.7032539062e+04
    1.2949927710e-02    7.7032171875e+04
    1.2959798798e-02    7.7032023438e+04
    1.2969937176e-02    7.7031960938e+04
    1.2979808263e-02    7.7031929688e+04
    1.2989946641e-02    7.7031976562e+04
    1.2999818660e-02    7.7032210938e+04
    1.3009957969e-02    7.7032726562e+04
    1.3019829988e-02    7.7033468750e+04
    1.3029969297e-02    7.7034328125e+04
    1.3039841317e-02    7.7035226562e+04
    1.3049980626e-02    7.7036312500e+04
    1.3059852645e-02    7.7037578125e+04
    1.3069991954e-02    7.7039007812e+04
    1.3079865836e-02    7.7040515625e+04
    1.3089738786e-02    7.7042242188e+04
    1.3099878095e-02    7.7044320312e+04
    1.3109751046e-02    7.7046617188e+04
    1.3119891286e-02    7.7049132812e+04
    1.3129763305e-02    7.7051625000e+04
    1.3139903545e-02    7.7054210938e+04
    1.3149777427e-02    7.7056851562e+04
    1.3159918599e-02    7.7059796875e+04
    1.3169791549e-02    7.7062859375e+04
    1.3179932721e-02    7.7066195312e+04
    1.3189805672e-02    7.7069648438e+04
    1.3199946843e-02    7.7073343750e+04
    1.3209820725e-02    7.7077007812e+04
    1.3219961897e-02    7.7080875000e+04
    1.3229835778e-02    7.7084796875e+04
    1.3239976950e-02    7.7089070312e+04
    1.3249850832e-02    7.7093484375e+04
    1.3259991072e-02    7.7098250000e+04
    1.3269865885e-02    7.7103031250e+04
    1.3279739767e-02    7.7107898438e+04
    1.3289880939e-02    7.7112976562e+04
    1.3299755752e-02    7.7118062500e+04
    1.3309896924e-02    7.7123507812e+04
    1.3319771737e-02    7.7129078125e+04
    1.3329912908e-02    7.7135031250e+04
    1.3339787722e-02    7.7140953125e+04
    1.3349928893e-02    7.7147085938e+04
    1.3359803706e-02    7.7153132812e+04
    1.3369944878e-02    7.7159531250e+04
    1.3379820623e-02    7.7166015625e+04
    1.3389962725e-02    7.7172929688e+04
    1.3399837539e-02    7.7179875000e+04
    1.3409979641e-02    7.7187132812e+04
    1.3419854455e-02    7.7194281250e+04
    1.3429996558e-02    7.7201734375e+04
    1.3439872302e-02    7.7209218750e+04
    1.3449747115e-02    7.7216953125e+04
    1.3459889218e-02    7.7225117188e+04
    1.3469764963e-02    7.7233257812e+04
    1.3479907997e-02    7.7241750000e+04
    1.3489783742e-02    7.7250085938e+04
    1.3499925844e-02    7.7258757812e+04
    1.3509801589e-02    7.7267421875e+04
    1.3519944623e-02    7.7276601562e+04
    1.3529820368e-02    7.7285773438e+04
    1.3539963402e-02    7.7295367188e+04
    1.3549840078e-02    7.7304835938e+04
    1.3559984043e-02    7.7314687500e+04
    1.3569859788e-02    7.7324445312e+04
    1.3579736464e-02    7.7334421875e+04
    1.3589880429e-02    7.7344906250e+04
    1.3599756174e-02    7.7355343750e+04
    1.3609900139e-02    7.7366273438e+04
    1.3619776815e-02    7.7377046875e+04
    1.3629920781e-02    7.7388210938e+04
    1.3639798388e-02    7.7399203125e+04
    1.3649942353e-02    7.7410742188e+04
    1.3659819961e-02    7.7422281250e+04
    1.3669964857e-02    7.7434359375e+04
    1.3679842465e-02    7.7446242188e+04
    1.3689987361e-02    7.7458554688e+04
    1.3699866831e-02    7.7470726562e+04
    1.3709745370e-02    7.7483117188e+04
    1.3719891198e-02    7.7496085938e+04
    1.3729769737e-02    7.7508937500e+04
    1.3739914633e-02    7.7522351562e+04
    1.3749793172e-02    7.7535585938e+04
    1.3759939931e-02    7.7549320312e+04
    1.3769819401e-02    7.7562843750e+04
    1.3779966161e-02    7.7576937500e+04
    1.3789845631e-02    7.7590929688e+04
    1.3799992390e-02    7.7605570312e+04
    1.3809872791e-02    7.7619976562e+04
    1.3819752261e-02    7.7634500000e+04
    1.3829899952e-02    7.7649593750e+04
    1.3839780353e-02    7.7664539062e+04
    1.3849928044e-02    7.7680171875e+04
    1.3859808445e-02    7.7695664062e+04
    1.3869956136e-02    7.7711796875e+04
    1.3879837468e-02    7.7727687500e+04
    1.3889985159e-02    7.7744179688e+04
    1.3899866492e-02    7.7760445312e+04
    1.3909747824e-02    7.7776945312e+04
    1.3919896446e-02    7.7794156250e+04
    1.3929778710e-02    7.7811179688e+04
    1.3939928263e-02    7.7828898438e+04
    1.3949811459e-02    7.7846312500e+04
    1.3959961012e-02    7.7864343750e+04
    1.3969844207e-02    7.7882132812e+04
    1.3979993761e-02    7.7900687500e+04
    1.3989876024e-02    7.7919023438e+04
    1.3999759220e-02    7.7937531250e+04
    1.4009909704e-02    7.7956703125e+04
    1.4019792899e-02    7.7975609375e+04
    1.4029944316e-02    7.7995343750e+04
    1.4039827511e-02    7.8014875000e+04
    1.4049978927e-02    7.8035148438e+04
    1.4059863985e-02    7.8055031250e+04
    1.4069748111e-02    7.8075085938e+04
    1.4079899527e-02    7.8095984375e+04
    1.4089784585e-02    7.8116640625e+04
    1.4099936001e-02    7.8138210938e+04
    1.4109821059e-02    7.8168734375e+04
    1.4119973406e-02    7.9128250000e+04
    1.4129859395e-02    9.7829851562e+04
    1.4139744453e-02    1.0311544531e+05
    1.4149897732e-02    1.0374053906e+05
    1.4159783721e-02    1.0369791406e+05
    1.4169936068e-02    1.0359308594e+05
    1.4179822989e-02    1.0351932031e+05
    1.4189976268e-02    1.0345624219e+05
    1.4199863188e-02    1.0340221875e+05
    1.4209750108e-02    1.0334960156e+05
    1.4219904318e-02    1.0329291406e+05
    1.4229791239e-02    1.0323589844e+05
    1.4239945449e-02    1.0317747656e+05
    1.4249833301e-02    1.0312083594e+05
    1.4259988442e-02    1.0306374219e+05
    1.4269876294e-02    1.0300835156e+05
    1.4279764146e-02    1.0295342969e+05
    1.4289919287e-02    1.0289696094e+05
    1.4299808070e-02    1.0284219531e+05
    1.4309964143e-02    1.0278546094e+05
    1.4319852926e-02    1.0273233594e+05
    1.4329741709e-02    1.0267702344e+05
    1.4339897782e-02    1.0262193750e+05
    1.4349787496e-02    1.0256771094e+05
    1.4359943569e-02    1.0251328906e+05
    1.4369833283e-02    1.0245883594e+05
    1.4379990287e-02    1.0240452344e+05
    1.4389880002e-02    1.0235215625e+05
    1.4399770647e-02    1.0229944531e+05
    1.4409927651e-02    1.0224427344e+05
    1.4419818297e-02    1.0219291406e+05
    1.4429976232e-02    1.0213878906e+05
    1.4439866878e-02    1.0208728906e+05
    1.4449757524e-02    1.0203521875e+05
    1.4459915459e-02    1.0198241406e+05
    1.4469807036e-02    1.0193084375e+05
    1.4479965903e-02    1.0187824219e+05
    1.4489857480e-02    1.0182731250e+05
    1.4499748126e-02    1.0177647656e+05
    1.4509907924e-02    1.0172457031e+05
    1.4519799501e-02    1.0167400781e+05
    1.4529959299e-02    1.0162252344e+05
    1.4539850876e-02    1.0157246094e+05
    1.4549743384e-02    1.0152277344e+05
    1.4559903182e-02    1.0147180469e+05
    1.4569795690e-02    1.0142235156e+05
    1.4579955488e-02    1.0137183594e+05
    1.4589848928e-02    1.0132275781e+05
    1.4599742368e-02    1.0127407031e+05
    1.4609902166e-02    1.0122402344e+05
    1.4619795606e-02    1.0117559375e+05
    1.4629956335e-02    1.0112589844e+05
    1.4639849775e-02    1.0107774219e+05
    1.4649744146e-02    1.0102977344e+05
    1.4659904875e-02    1.0098052344e+05
    1.4669799246e-02    1.0093285156e+05
    1.4679960907e-02    1.0088396875e+05
    1.4689855278e-02    1.0083682031e+05
    1.4699749649e-02    1.0078977344e+05
    1.4709911309e-02    1.0074144531e+05
    1.4719805680e-02    1.0069503125e+05
    1.4729968272e-02    1.0064764844e+05
    1.4739862643e-02    1.0060049219e+05
    1.4749757946e-02    1.0055484375e+05
    1.4759920537e-02    1.0050793750e+05
    1.4769815840e-02    1.0046232031e+05
    1.4779978432e-02    1.0041431250e+05
    1.4789873734e-02    1.0036971875e+05
    1.4799769968e-02    1.0032474219e+05
    1.4809933491e-02    1.0027758594e+05
    1.4819828793e-02    1.0023263281e+05
    1.4829992317e-02    1.0018742969e+05
    1.4839888550e-02    1.0014224219e+05
    1.4849784784e-02    1.0009831250e+05
    1.4859949239e-02    1.0005278125e+05
    1.4869845472e-02    1.0000886719e+05
    1.4879741706e-02    9.9964710938e+04
    1.4889906161e-02    9.9919695312e+04
    1.4899802394e-02    9.9875656250e+04
    1.4909966849e-02    9.9830843750e+04
    1.4919864014e-02    9.9787468750e+04
    1.4929761179e-02    9.9744343750e+04
    1.4939926565e-02    9.9700367188e+04
    1.4949823730e-02    9.9657648438e+04
    1.4959988184e-02    9.9613914062e+04
    1.4969886281e-02    9.9571445312e+04
    1.4979783446e-02    9.9529054688e+04
    1.4989948831e-02    9.9485695312e+04
    1.4999846928e-02    9.9443625000e+04
    1.5009745024e-02    9.9401757812e+04
    1.5019910410e-02    9.9358937500e+04
    1.5029808506e-02    9.9317312500e+04
    1.5039974824e-02    9.9274632812e+04
    1.5049872920e-02    9.9233250000e+04
    1.5059771948e-02    9.9192023438e+04
    1.5069938265e-02    9.9149781250e+04
    1.5079836361e-02    9.9108976562e+04
    1.5089735389e-02    9.9068593750e+04
    1.5099901706e-02    9.9026601562e+04
    1.5109800734e-02    9.8985875000e+04
    1.5119967051e-02    9.8945023438e+04
    1.5129867010e-02    9.8904523438e+04
    1.5139766037e-02    9.8864164062e+04
    1.5149933286e-02    9.8822835938e+04
    1.5159832314e-02    9.8783960938e+04
    1.5169999562e-02    9.8742476562e+04
    1.5179899521e-02    9.8702445312e+04
    1.5189798549e-02    9.8663226562e+04
    1.5199966729e-02    9.8623406250e+04
    1.5209866688e-02    9.8583375000e+04
    1.5219766647e-02    9.8544101562e+04
    1.5229933895e-02    9.8504804688e+04
    1.5239833854e-02    9.8465351562e+04
    1.5249733813e-02    9.8426414062e+04
    1.5259901993e-02    9.8386812500e+04
    1.5269801952e-02    9.8348335938e+04
    1.5279970132e-02    9.8309031250e+04
    1.5289871022e-02    9.8270414062e+04
    1.5299770981e-02    9.8232742188e+04
    1.5309939161e-02    9.8193023438e+04
    1.5319840051e-02    9.8155132812e+04
    1.5329740942e-02    9.8116585938e+04
    1.5339909121e-02    9.8077773438e+04
    1.5349810012e-02    9.8040156250e+04
    1.5359979123e-02    9.8002132812e+04
    1.5369880013e-02    9.7965351562e+04
    1.5379780903e-02    9.7928492188e+04
    1.5389950015e-02    9.7890023438e+04
    1.5399850905e-02    9.7851687500e+04
    1.5409752727e-02    9.7812976562e+04
    1.5419920906e-02    9.7773648438e+04
    1.5429822728e-02    9.7736679688e+04
    1.5439991839e-02    9.7700523438e+04
    1.5449892730e-02    9.7666656250e+04
    1.5459794551e-02    9.7633085938e+04
    1.5469963662e-02    9.7597500000e+04
    1.5479865484e-02    9.7560773438e+04
    1.5489766374e-02    9.7521898438e+04
    1.5499935485e-02    9.7480562500e+04
    1.5509837307e-02    9.7440531250e+04
    1.5519739129e-02    9.7402242188e+04
    1.5529908240e-02    9.7365210938e+04
    1.5539810061e-02    9.7330914062e+04
    1.5549980104e-02    9.7298039062e+04
    1.5559881926e-02    9.7266914062e+04
    1.5569783747e-02    9.7234179688e+04
    1.5579952858e-02    9.7200156250e+04
    1.5589854680e-02    9.7166664062e+04
    1.5599756502e-02    9.7132023438e+04
    1.5609926544e-02    9.7094070312e+04
    1.5619828366e-02    9.7057210938e+04
    1.5629997477e-02    9.7019062500e+04
    1.5639899299e-02    9.6982023438e+04
    1.5649801120e-02    9.6945148438e+04
    1.5659971163e-02    9.6908835938e+04
    1.5669872984e-02    9.6874125000e+04
    1.5679774806e-02    9.6839882812e+04
    1.5689944848e-02    9.6805539062e+04
    1.5699846670e-02    9.6772687500e+04
    1.5709748492e-02    9.6739398438e+04
    1.5719918534e-02    9.6705531250e+04
    1.5729820356e-02    9.6671781250e+04
    1.5739990398e-02    9.6637257812e+04
    1.5749892220e-02    9.6603148438e+04
    1.5759794042e-02    9.6569445312e+04
    1.5769964084e-02    9.6534648438e+04
    1.5779865906e-02    9.6501273438e+04
    1.5789767727e-02    9.6467867188e+04
    1.5799937770e-02    9.6433835938e+04
    1.5809839591e-02    9.6400664062e+04
    1.5819741413e-02    9.6367445312e+04
    1.5829911456e-02    9.6333398438e+04
    1.5839813277e-02    9.6300406250e+04
    1.5849983320e-02    9.6266773438e+04
    1.5859885141e-02    9.6234156250e+04
    1.5869786963e-02    9.6201648438e+04
    1.5879957005e-02    9.6168351562e+04
    1.5889858827e-02    9.6136023438e+04
    1.5899760649e-02    9.6103679688e+04
    1.5909930691e-02    9.6070632812e+04
    1.5919832513e-02    9.6038710938e+04
    1.5929734334e-02    9.6006429688e+04
    1.5939904377e-02    9.5972382812e+04
    1.5949806198e-02    9.5939789062e+04
    1.5959974378e-02    9.5906664062e+04
    1.5969876200e-02    9.5873062500e+04
    1.5979778022e-02    9.5840312500e+04
    1.5989948064e-02    9.5807773438e+04
    1.5999849886e-02    9.5775937500e+04
    1.6009751707e-02    9.5744093750e+04
    1.6019921750e-02    9.5713085938e+04
    1.6029823571e-02    9.5683132812e+04
    1.6039991751e-02    9.5651835938e+04
    1.6049893573e-02    9.5621414062e+04
    1.6059795395e-02    9.5590914062e+04
    1.6069965437e-02    9.5559039062e+04
    1.6079867259e-02    9.5527539062e+04
    1.6089769080e-02    9.5496085938e+04
    1.6099939123e-02    9.5463617188e+04
    1.6109840944e-02    9.5431414062e+04
    1.6119744629e-02    9.5399601562e+04
    1.6129914671e-02    9.5366804688e+04
    1.6139816493e-02    9.5335593750e+04
    1.6149986535e-02    9.5304273438e+04
    1.6159890220e-02    9.5274460938e+04
    1.6169793904e-02    9.5245039062e+04
    1.6179963946e-02    9.5214945312e+04
    1.6189867631e-02    9.5185101562e+04
    1.6199771315e-02    9.5154898438e+04
    1.6209943220e-02    9.5122960938e+04
    1.6219846904e-02    9.5091585938e+04
    1.6229750589e-02    9.5060039062e+04
    1.6239922494e-02    9.5028132812e+04
    1.6249828041e-02    9.4997960938e+04
    1.6259999946e-02    9.4967914062e+04
    1.6269903630e-02    9.4939289062e+04
    1.6279809177e-02    9.4910585938e+04
    1.6289982945e-02    9.4880250000e+04
    1.6299888492e-02    9.4849742188e+04
    1.6309794039e-02    9.4818812500e+04
    1.6319969669e-02    9.4787281250e+04
    1.6329875216e-02    9.4756851562e+04
    1.6339782625e-02    9.4727304688e+04
    1.6349956393e-02    9.4698523438e+04
    1.6359863803e-02    9.4669976562e+04
    1.6369771212e-02    9.4640156250e+04
    1.6379946843e-02    9.4610164062e+04
    1.6389856115e-02    9.4580281250e+04
    1.6399763525e-02    9.4549507812e+04
    1.6409941018e-02    9.4518679688e+04
    1.6419850290e-02    9.4490468750e+04
    1.6429759562e-02    9.4462218750e+04
    1.6439937055e-02    9.4432726562e+04
    1.6449846327e-02    9.4403843750e+04
    1.6459757462e-02    9.4374750000e+04
    1.6469934955e-02    9.4343851562e+04
    1.6479846090e-02    9.4314085938e+04
    1.6489757225e-02    9.4285656250e+04
    1.6499938443e-02    9.4256351562e+04
    1.6509851441e-02    9.4228507812e+04
    1.6519764438e-02    9.4200187500e+04
    1.6529945657e-02    9.4170335938e+04
    1.6539860517e-02    9.4141085938e+04
    1.6549773514e-02    9.4111992188e+04
    1.6559956595e-02    9.4082742188e+04
    1.6569871455e-02    9.4054914062e+04
    1.6579786316e-02    9.4027023438e+04
    1.6589969397e-02    9.3998039062e+04
    1.6599884257e-02    9.3969351562e+04
    1.6609799117e-02    9.3940507812e+04
    1.6619984061e-02    9.3911437500e+04
    1.6629900783e-02    9.3883351562e+04
    1.6639819369e-02    9.3855710938e+04
    1.6649737954e-02    9.3827742188e+04
    1.6659924760e-02    9.3798789062e+04
    1.6669845209e-02    9.3770476562e+04
    1.6679763794e-02    9.3742226562e+04
    1.6689952463e-02    9.3713648438e+04
    1.6699874774e-02    9.3686164062e+04
    1.6709795222e-02    9.3658804688e+04
    1.6719985753e-02    9.3630195312e+04
    1.6729908064e-02    9.3601835938e+04
    1.6739830375e-02    9.3574179688e+04
    1.6749754548e-02    9.3547070312e+04
    1.6759946942e-02    9.3518367188e+04
    1.6769871116e-02    9.3490992188e+04
    1.6779797152e-02    9.3464312500e+04
    1.6789993271e-02    9.3435476562e+04
    1.6799921170e-02    9.3407429688e+04
    1.6809850931e-02    9.3380375000e+04
    1.6819780692e-02    9.3353757812e+04
    1.6829980537e-02    9.3325500000e+04
    1.6839914024e-02    9.3298351562e+04
    1.6849847510e-02    9.3271101562e+04
    1.6859780997e-02    9.3244125000e+04
    1.6869984567e-02    9.3216164062e+04
    1.6879921779e-02    9.3189750000e+04
    1.6889858991e-02    9.3162625000e+04
    1.6899796203e-02    9.3135656250e+04
    1.6909735277e-02    9.3108710938e+04
    1.6919942573e-02    9.3080992188e+04
    1.6929881647e-02    9.3054343750e+04
    1.6939826310e-02    9.3027773438e+04
    1.6949769109e-02    9.3001375000e+04
    1.6959983855e-02    9.2974125000e+04
    1.6969930381e-02    9.2948148438e+04
    1.6979876906e-02    9.2921781250e+04
    1.6989827156e-02    9.2895710938e+04
    1.6999777406e-02    9.2869289062e+04
    1.7009997740e-02    9.2841789062e+04
    1.7019949853e-02    9.2814843750e+04
    1.7029903829e-02    9.2787843750e+04
    1.7039859667e-02    9.2760851562e+04
    1.7049817368e-02    9.2733992188e+04
    1.7059775069e-02    9.2707664062e+04
    1.7069734633e-02    9.2681539062e+04
    1.7079966143e-02    9.2654914062e+04
    1.7089929432e-02    9.2629570312e+04
    1.7099896446e-02    9.2604414062e+04
    1.7109861597e-02    9.2578851562e+04
    1.7119828612e-02    9.2552898438e+04
    1.7129797488e-02    9.2527320312e+04
    1.7139770091e-02    9.2502148438e+04
    1.7149742693e-02    9.2476023438e+04
    1.7159987241e-02    9.2449023438e+04
    1.7169961706e-02    9.2423976562e+04
    1.7179938033e-02    9.2398289062e+04
    1.7189919949e-02    9.2371945312e+04
    1.7199901864e-02    9.2346460938e+04
    1.7209881917e-02    9.2321687500e+04
    1.7219865695e-02    9.2296398438e+04
    1.7229851335e-02    9.2270664062e+04
    1.7239840701e-02    9.2246468750e+04
    1.7249831930e-02    9.2221507812e+04
    1.7259821296e-02    9.2196914062e+04
    1.7269814387e-02    9.2172179688e+04
    1.7279811203e-02    9.2147773438e+04
    1.7289809883e-02    9.2122835938e+04
    1.7299810424e-02    9.2098523438e+04
    1.7309809104e-02    9.2073304688e+04
    1.7319809645e-02    9.2048437500e+04
    1.7329815775e-02    9.2023101562e+04
    1.7339823768e-02    9.1998039062e+04
    1.7349833623e-02    9.1973000000e+04
    1.7359843478e-02    9.1948000000e+04
    1.7369851470e-02    9.1923250000e+04
    1.7379865050e-02    9.1898601562e+04
    1.7389884219e-02    9.1874226562e+04
    1.7399903387e-02    9.1850148438e+04
    1.7409924418e-02    9.1826125000e+04
    1.7419945449e-02    9.1802445312e+04
    1.7429968342e-02    9.1778601562e+04
    1.7439994961e-02    9.1754945312e+04
    1.7449751496e-02    9.1731757812e+04
    1.7459776253e-02    9.1707945312e+04
    1.7469808459e-02    9.1683906250e+04
    1.7479844391e-02    9.1659554688e+04
    1.7489880323e-02    9.1635476562e+04
    1.7499921843e-02    9.1611617188e+04
    1.7509959638e-02    9.1587468750e+04
    1.7519999295e-02    9.1563664062e+04
    1.7529774457e-02    9.1541343750e+04
    1.7539823428e-02    9.1517937500e+04
    1.7549874261e-02    9.1494343750e+04
    1.7559926957e-02    9.1471554688e+04
    1.7569975927e-02    9.1448632812e+04
    1.7579756677e-02    9.1425593750e+04
    1.7589816824e-02    9.1402000000e+04
    1.7599875107e-02    9.1379523438e+04
    1.7609937117e-02    9.1356023438e+04
    1.7619999126e-02    9.1332585938e+04
    1.7629787326e-02    9.1310570312e+04
    1.7639853060e-02    9.1287898438e+04
    1.7649920657e-02    9.1264906250e+04
    1.7659990117e-02    9.1242531250e+04
    1.7669793218e-02    9.1220398438e+04
    1.7679868266e-02    9.1197773438e+04
    1.7689941451e-02    9.1175164062e+04
    1.7699748278e-02    9.1153460938e+04
    1.7709825188e-02    9.1130679688e+04
    1.7719907686e-02    9.1108593750e+04
    1.7729993910e-02    9.1085843750e+04
    1.7739810050e-02    9.1064585938e+04
    1.7749898136e-02    9.1042148438e+04
    1.7759989947e-02    9.1020351562e+04
    1.7769807950e-02    9.0998875000e+04
    1.7779899761e-02    9.0977101562e+04
    1.7789999023e-02    9.0955085938e+04
    1.7799826339e-02    9.0934031250e+04
    1.7809927464e-02    9.0912164062e+04
    1.7819758505e-02    9.0891164062e+04
    1.7829861492e-02    9.0869429688e+04
    1.7839970067e-02    9.0847968750e+04
    1.7849806696e-02    9.0827195312e+04
    1.7859917134e-02    9.0805757812e+04
    1.7869759351e-02    9.0784976562e+04
    1.7879875377e-02    9.0763804688e+04
    1.7889993265e-02    9.0742851562e+04
    1.7899839208e-02    9.0722062500e+04
    1.7909962684e-02    9.0700851562e+04
    1.7919814214e-02    9.0680992188e+04
    1.7929943278e-02    9.0659992188e+04
    1.7939798534e-02    9.0639210938e+04
    1.7949927598e-02    9.0618835938e+04
    1.7959788442e-02    9.0599031250e+04
    1.7969924957e-02    9.0578023438e+04
    1.7979789525e-02    9.0557601562e+04
    1.7989935353e-02    9.0537625000e+04
    1.7999805510e-02    9.0517718750e+04
    1.8009953201e-02    9.0496742188e+04
    1.8019828945e-02    9.0477335938e+04
    1.8029978499e-02    9.0457335938e+04
    1.8039856106e-02    9.0437375000e+04
    1.8049739301e-02    9.0417914062e+04
    1.8059900030e-02    9.0398132812e+04
    1.8069786951e-02    9.0378335938e+04
    1.8079951406e-02    9.0358781250e+04
    1.8089840189e-02    9.0339398438e+04
    1.8099736422e-02    9.0320164062e+04
    1.8109908327e-02    9.0300710938e+04
    1.8119808286e-02    9.0281429688e+04
    1.8129987642e-02    9.0262101562e+04
    1.8139893189e-02    9.0242929688e+04
    1.8149800599e-02    9.0224164062e+04
    1.8159989268e-02    9.0204554688e+04
    1.8169902265e-02    9.0185898438e+04
    1.8179815263e-02    9.0167250000e+04
    1.8189733848e-02    9.0148929688e+04
    1.8199929968e-02    9.0130023438e+04
    1.8209852278e-02    9.0111562500e+04
    1.8219776452e-02    9.0093101562e+04
    1.8229976296e-02    9.0074257812e+04
    1.8239906058e-02    9.0055945312e+04
    1.8249837682e-02    9.0037781250e+04
    1.8259771168e-02    9.0019656250e+04
    1.8269980326e-02    9.0001351562e+04
    1.8279915676e-02    8.9983414062e+04
    1.8289854750e-02    8.9965148438e+04
    1.8299795687e-02    8.9947210938e+04
    1.8309738487e-02    8.9929937500e+04
    1.8319956958e-02    8.9911687500e+04
    1.8329901621e-02    8.9893585938e+04
    1.8339848146e-02    8.9876460938e+04
    1.8349794671e-02    8.9859414062e+04
    1.8359743059e-02    8.9841773438e+04
    1.8369970843e-02    8.9823773438e+04
    1.8379924819e-02    8.9806906250e+04
    1.8389882520e-02    8.9789726562e+04
    1.8399842083e-02    8.9772210938e+04
    1.8409797922e-02    8.9755593750e+04
    1.8419757485e-02    8.9738875000e+04
    1.8429990858e-02    8.9721351562e+04
    1.8439944834e-02    8.9704343750e+04
    1.8449895084e-02    8.9687960938e+04
    1.8459839746e-02    8.9671273438e+04
    1.8469778821e-02    8.9654695312e+04
    1.8479987979e-02    8.9637773438e+04
    1.8489915878e-02    8.9621523438e+04
    1.8499881029e-02    8.9604945312e+04
    1.8509728834e-02    8.9589031250e+04
    1.8519738689e-02    8.9572617188e+04
    1.8529910594e-02    8.9556132812e+04
    1.8539946526e-02    8.9539945312e+04
    1.8549827859e-02    8.9524031250e+04
    1.8559852615e-02    8.9508132812e+04
    1.8569706008e-02    8.9492531250e+04
    1.8579687923e-02    8.9476835938e+04
    1.8589802086e-02    8.9461039062e+04
    1.8599728122e-02    8.9445531250e+04
    1.8609775230e-02    8.9429929688e+04
    1.8619937822e-02    8.9414085938e+04
    1.8629893661e-02    8.9398835938e+04
    1.8639966846e-02    8.9383367188e+04
    1.8649812788e-02    8.9368468750e+04
    1.8659759313e-02    8.9353429688e+04
    1.8669817597e-02    8.9338289062e+04
    1.8679985777e-02    8.9322976562e+04
    1.8689900637e-02    8.9308164062e+04
    1.8699910492e-02    8.9293593750e+04
    1.8709652126e-02    8.9279023438e+04
    1.8719859421e-02    8.9263468750e+04
    1.8729791045e-02    8.9249148438e+04
    1.8739804626e-02    8.9235164062e+04
    1.8749905750e-02    8.9219992188e+04
    1.8759708852e-02    8.9205648438e+04
    1.8769960850e-02    8.9191625000e+04
    1.8779898062e-02    8.9177023438e+04
    1.8789738417e-02    8.9162750000e+04
    1.8799791113e-02    8.9148804688e+04
    1.8809802830e-02    8.9134781250e+04
    1.8819816411e-02    8.9120679688e+04
    1.8829829991e-02    8.9106617188e+04
    1.8839847296e-02    8.9093101562e+04
    1.8849872053e-02    8.9079226562e+04
    1.8859900534e-02    8.9065523438e+04
    1.8869938329e-02    8.9051976562e+04
    1.8879996613e-02    8.9038398438e+04
    1.8889820203e-02    8.9025132812e+04
    1.8899912015e-02    8.9011820312e+04
    1.8909780309e-02    8.8998648438e+04
    1.8919929862e-02    8.8985164062e+04
    1.8929848447e-02    8.8972117188e+04
    1.8939778209e-02    8.8959062500e+04
    1.8949970603e-02    8.8945835938e+04
    1.8959915265e-02    8.8933031250e+04
    1.8969867378e-02    8.8920187500e+04
    1.8979832530e-02    8.8907476562e+04
    1.8989814445e-02    8.8894617188e+04
    1.8999811262e-02    8.8882070312e+04
    1.9009834155e-02    8.8869445312e+04
    1.9019877538e-02    8.8857101562e+04
    1.9029946998e-02    8.8844570312e+04
    1.9039778039e-02    8.8832500000e+04
    1.9049882889e-02    8.8819976562e+04
    1.9059743732e-02    8.8807945312e+04
    1.9069874659e-02    8.8795492188e+04
    1.9079754129e-02    8.8783687500e+04
    1.9089901820e-02    8.8771820312e+04
    1.9099805504e-02    8.8759976562e+04
    1.9109979272e-02    8.8747664062e+04
    1.9119899720e-02    8.8736398438e+04
    1.9129831344e-02    8.8725289062e+04
    1.9139776006e-02    8.8713250000e+04
    1.9149992615e-02    8.8701492188e+04
    1.9159961492e-02    8.8690664062e+04
    1.9169939682e-02    8.8678960938e+04
    1.9179929048e-02    8.8667460938e+04
    1.9189938903e-02    8.8656539062e+04
    1.9199958071e-02    8.8645226562e+04
    1.9209997728e-02    8.8633726562e+04
    1.9219789654e-02    8.8623031250e+04
    1.9229857251e-02    8.8612273438e+04
    1.9239939749e-02    8.8601226562e+04
    1.9249772653e-02    8.8590835938e+04
    1.9259877503e-02    8.8580210938e+04
    1.9269736484e-02    8.8569875000e+04
    1.9279876724e-02    8.8559023438e+04
    1.9289772958e-02    8.8548750000e+04
    1.9299944863e-02    8.8537945312e+04
    1.9309859723e-02    8.8527679688e+04
    1.9319796935e-02    8.8517343750e+04
    1.9329745322e-02    8.8507023438e+04
    1.9339982420e-02    8.8496539062e+04
    1.9349958748e-02    8.8486492188e+04
    1.9359942526e-02    8.8476500000e+04
    1.9369943067e-02    8.8466812500e+04
    1.9379962236e-02    8.8457039062e+04
    1.9389733672e-02    8.8447742188e+04
    1.9399790093e-02    8.8437914062e+04
    1.9409870729e-02    8.8428289062e+04
    1.9419969991e-02    8.8418570312e+04
    1.9429806620e-02    8.8409437500e+04
    1.9439922646e-02    8.8399960938e+04
[...]
    1.1513978988e-01    1.0121746094e+05
    1.1514972895e-01    1.0121746094e+05
    1.1515998095e-01    1.0121746094e+05
    1.1516992003e-01    1.0121746094e+05
    1.1517985910e-01    1.0121744531e+05
    1.1518979818e-01    1.0121743750e+05
    1.1519973725e-01    1.0121743750e+05
    1.1520998180e-01    1.0121742969e+05
    1.1521992087e-01    1.0121742969e+05
    1.1522986740e-01    1.0121741406e+05
    1.1523980647e-01    1.0121741406e+05
    1.1524974555e-01    1.0121741406e+05
    1.1525999010e-01    1.0121740625e+05
    1.1526992917e-01    1.0121740625e+05
    1.1527986825e-01    1.0121739844e+05
    1.1528980732e-01    1.0121739844e+05
    1.1529974639e-01    1.0121739844e+05
    1.1530999839e-01    1.0121738281e+05
    1.1531993747e-01    1.0121738281e+05
    1.1532987654e-01    1.0121737500e+05
    1.1533981562e-01    1.0121737500e+05
    1.1534975469e-01    1.0121736719e+05
    1.1535969377e-01    1.0121735156e+05
    1.1536994576e-01    1.0121735156e+05
    1.1537988484e-01    1.0121735156e+05
    1.1538982391e-01    1.0121735156e+05
    1.1539976299e-01    1.0121734375e+05
    1.1540970206e-01    1.0121733594e+05
    1.1541994661e-01    1.0121733594e+05
    1.1542988569e-01    1.0121733594e+05
    1.1543982476e-01    1.0121733594e+05
    1.1544976383e-01    1.0121732031e+05
    1.1545970291e-01    1.0121731250e+05
    1.1546995491e-01    1.0121731250e+05
    1.1547989398e-01    1.0121730469e+05
    1.1548983306e-01    1.0121730469e+05
    1.1549977213e-01    1.0121728906e+05
    1.1550971121e-01    1.0121728906e+05
    1.1551996320e-01    1.0121728906e+05
    1.1552990228e-01    1.0121728125e+05
    1.1553984135e-01    1.0121728125e+05
    1.1554978043e-01    1.0121727344e+05
    1.1555971950e-01    1.0121727344e+05
    1.1556996405e-01    1.0121727344e+05
    1.1557990313e-01    1.0121725781e+05
    1.1558984220e-01    1.0121725781e+05
    1.1559978127e-01    1.0121725000e+05
    1.1560972035e-01    1.0121725000e+05
    1.1561997235e-01    1.0121724219e+05
    1.1562991142e-01    1.0121724219e+05
    1.1563985050e-01    1.0121722656e+05
    1.1564978957e-01    1.0121722656e+05
    1.1565972865e-01    1.0121722656e+05
    1.1566998065e-01    1.0121721875e+05
    1.1567991972e-01    1.0121721875e+05
    1.1568985879e-01    1.0121721094e+05
    1.1569979787e-01    1.0121721094e+05
    1.1570973694e-01    1.0121721094e+05
    1.1571998894e-01    1.0121721094e+05
    1.1572992802e-01    1.0121719531e+05
    1.1573986709e-01    1.0121718750e+05
    1.1574980617e-01    1.0121718750e+05
    1.1575974524e-01    1.0121717969e+05
    1.1576998979e-01    1.0121717969e+05
    1.1577992886e-01    1.0121716406e+05
    1.1578986794e-01    1.0121716406e+05
    1.1579980701e-01    1.0121716406e+05
    1.1580974609e-01    1.0121715625e+05
    1.1581999809e-01    1.0121715625e+05
    1.1582993716e-01    1.0121714844e+05
    1.1583987623e-01    1.0121714844e+05
    1.1584981531e-01    1.0121714844e+05
    1.1585975438e-01    1.0121714844e+05
    1.1586969346e-01    1.0121713281e+05
    1.1587994546e-01    1.0121712500e+05
    1.1588988453e-01    1.0121712500e+05
    1.1589982361e-01    1.0121711719e+05
    1.1590976268e-01    1.0121711719e+05
    1.1591970176e-01    1.0121710156e+05
    1.1592994630e-01    1.0121710156e+05
    1.1593988538e-01    1.0121710156e+05
    1.1594982445e-01    1.0121710156e+05
    1.1595976353e-01    1.0121709375e+05
    1.1596970260e-01    1.0121709375e+05
    1.1597995460e-01    1.0121708594e+05
    1.1598989367e-01    1.0121708594e+05
    1.1599983275e-01    1.0121708594e+05
    1.1600977182e-01    1.0121707031e+05
    1.1601971090e-01    1.0121706250e+05
    1.1602996290e-01    1.0121706250e+05
    1.1603990197e-01    1.0121705469e+05
    1.1604984105e-01    1.0121705469e+05
    1.1605978012e-01    1.0121703906e+05
    1.1606971920e-01    1.0121703906e+05
    1.1607997119e-01    1.0121703906e+05
    1.1608991027e-01    1.0121703125e+05
    1.1609984934e-01    1.0121703125e+05
    1.1610978842e-01    1.0121702344e+05
    1.1611972749e-01    1.0121702344e+05
    1.1612997204e-01    1.0121702344e+05
    1.1613991112e-01    1.0121702344e+05
    1.1614985019e-01    1.0121700781e+05
    1.1615978926e-01    1.0121700000e+05
    1.1616972834e-01    1.0121700000e+05
    1.1617998034e-01    1.0121699219e+05
    1.1618991941e-01    1.0121699219e+05
    1.1619985849e-01    1.0121697656e+05
    1.1620979756e-01    1.0121697656e+05
    1.1621973664e-01    1.0121697656e+05
    1.1622998863e-01    1.0121696875e+05
    1.1623992771e-01    1.0121696875e+05
    1.1624986678e-01    1.0121696094e+05
    1.1625980586e-01    1.0121696094e+05
    1.1626974493e-01    1.0121696094e+05
    1.1627998948e-01    1.0121696094e+05
    1.1628992856e-01    1.0121694531e+05
    1.1629986763e-01    1.0121694531e+05
    1.1630980670e-01    1.0121693750e+05
    1.1631974578e-01    1.0121693750e+05
    1.1632999778e-01    1.0121692969e+05
    1.1633993685e-01    1.0121691406e+05
    1.1634987593e-01    1.0121691406e+05
    1.1635981500e-01    1.0121691406e+05
    1.1636975408e-01    1.0121691406e+05
    1.1637969315e-01    1.0121690625e+05
    1.1638994515e-01    1.0121690625e+05
    1.1639988422e-01    1.0121689844e+05
    1.1640982330e-01    1.0121689844e+05
    1.1641976237e-01    1.0121689844e+05
    1.1642970145e-01    1.0121688281e+05
    1.1643995345e-01    1.0121688281e+05
    1.1644989252e-01    1.0121687500e+05
    1.1645983160e-01    1.0121687500e+05
    1.1646977067e-01    1.0121686719e+05
    1.1647970974e-01    1.0121685156e+05
    1.1648995429e-01    1.0121685156e+05
    1.1649989337e-01    1.0121685156e+05
    1.1650983244e-01    1.0121684375e+05
    1.1651977152e-01    1.0121684375e+05
    1.1652971059e-01    1.0121684375e+05
    1.1653996259e-01    1.0121683594e+05
    1.1654990166e-01    1.0121683594e+05
    1.1655984074e-01    1.0121683594e+05
    1.1656977981e-01    1.0121683594e+05
    1.1657971889e-01    1.0121682031e+05
    1.1658997089e-01    1.0121682031e+05
    1.1659990996e-01    1.0121681250e+05
    1.1660984904e-01    1.0121681250e+05
    1.1661978811e-01    1.0121680469e+05
    1.1662972718e-01    1.0121678906e+05
    1.1663997173e-01    1.0121678906e+05
    1.1664991081e-01    1.0121678906e+05
    1.1665984988e-01    1.0121678125e+05
    1.1666978896e-01    1.0121678125e+05
    1.1667972803e-01    1.0121677344e+05
    1.1668998003e-01    1.0121677344e+05
    1.1669991910e-01    1.0121677344e+05
    1.1670985818e-01    1.0121677344e+05
    1.1671979725e-01    1.0121675781e+05
    1.1672973633e-01    1.0121675000e+05
    1.1673998833e-01    1.0121675000e+05
    1.1674992740e-01    1.0121674219e+05
    1.1675986648e-01    1.0121674219e+05
    1.1676980555e-01    1.0121672656e+05
    1.1677974463e-01    1.0121672656e+05
    1.1678999662e-01    1.0121672656e+05
    1.1679993570e-01    1.0121672656e+05
    1.1680987477e-01    1.0121671875e+05
    1.1681981385e-01    1.0121671875e+05
    1.1682975292e-01    1.0121671094e+05
    1.1683999747e-01    1.0121671094e+05
    1.1684993654e-01    1.0121671094e+05
    1.1685987562e-01    1.0121671094e+05
    1.1686981469e-01    1.0121669531e+05
    1.1687975377e-01    1.0121669531e+05
    1.1688969284e-01    1.0121668750e+05
    1.1689994484e-01    1.0121667969e+05
    1.1690988392e-01    1.0121667969e+05
    1.1691982299e-01    1.0121666406e+05
    1.1692976207e-01    1.0121666406e+05
    1.1693970114e-01    1.0121666406e+05
    1.1694995314e-01    1.0121665625e+05
    1.1695989221e-01    1.0121665625e+05
    1.1696983129e-01    1.0121664844e+05
    1.1697977036e-01    1.0121664844e+05
    1.1698970944e-01    1.0121664844e+05
    1.1699995399e-01    1.0121664844e+05
    1.1700989306e-01    1.0121664844e+05
    1.1701983213e-01    1.0121663281e+05
    1.1702977121e-01    1.0121663281e+05
    1.1703971028e-01    1.0121662500e+05
    1.1704996228e-01    1.0121661719e+05
    1.1705990136e-01    1.0121661719e+05
    1.1706984043e-01    1.0121660156e+05
    1.1707977951e-01    1.0121660156e+05
    1.1708971858e-01    1.0121659375e+05
    1.1709997058e-01    1.0121658594e+05
    1.1710990965e-01    1.0121658594e+05
    1.1711984873e-01    1.0121658594e+05
    1.1712978780e-01    1.0121657031e+05
    1.1713972688e-01    1.0121657031e+05
    1.1714997888e-01    1.0121656250e+05
    1.1715991795e-01    1.0121656250e+05
    1.1716985703e-01    1.0121656250e+05
    1.1717979610e-01    1.0121656250e+05
    1.1718973517e-01    1.0121655469e+05
    1.1719997972e-01    1.0121653906e+05
    1.1720991880e-01    1.0121653906e+05
    1.1721985787e-01    1.0121653906e+05
    1.1722979695e-01    1.0121653125e+05
    1.1723973602e-01    1.0121653125e+05
    1.1724998802e-01    1.0121653125e+05
    1.1725992709e-01    1.0121652344e+05
    1.1726986617e-01    1.0121652344e+05
    1.1727980524e-01    1.0121652344e+05
    1.1728974432e-01    1.0121652344e+05
    1.1729999632e-01    1.0121652344e+05
    1.1730993539e-01    1.0121652344e+05
    1.1731987447e-01    1.0121652344e+05
    1.1732981354e-01    1.0121652344e+05
    1.1733975261e-01    1.0121650781e+05
    1.1734969169e-01    1.0121650781e+05
    1.1735993624e-01    1.0121650000e+05
    1.1736987531e-01    1.0121649219e+05
    1.1737981439e-01    1.0121647656e+05
    1.1738975346e-01    1.0121647656e+05
    1.1739969254e-01    1.0121647656e+05
    1.1740994453e-01    1.0121646875e+05
    1.1741988361e-01    1.0121646094e+05
    1.1742982268e-01    1.0121646094e+05
    1.1743976176e-01    1.0121646094e+05
    1.1744970083e-01    1.0121646094e+05
    1.1745995283e-01    1.0121644531e+05
    1.1746989191e-01    1.0121644531e+05
    1.1747983098e-01    1.0121643750e+05
    1.1748977005e-01    1.0121643750e+05
    1.1749970913e-01    1.0121642969e+05
    1.1750996113e-01    1.0121642969e+05
    1.1751990020e-01    1.0121641406e+05
    1.1752983928e-01    1.0121641406e+05
    1.1753977835e-01    1.0121641406e+05
    1.1754971743e-01    1.0121640625e+05
    1.1755996197e-01    1.0121640625e+05
    1.1756990105e-01    1.0121639844e+05
    1.1757984012e-01    1.0121639844e+05
    1.1758977920e-01    1.0121639844e+05
    1.1759971827e-01    1.0121639844e+05
    1.1760997027e-01    1.0121639844e+05
    1.1761990935e-01    1.0121638281e+05
    1.1762984842e-01    1.0121638281e+05
    1.1763978750e-01    1.0121637500e+05
    1.1764972657e-01    1.0121636719e+05
    1.1765997857e-01    1.0121636719e+05
    1.1766991764e-01    1.0121635156e+05
    1.1767985672e-01    1.0121635156e+05
    1.1768979579e-01    1.0121635156e+05
    1.1769973487e-01    1.0121635156e+05
    1.1770997941e-01    1.0121634375e+05
    1.1771991849e-01    1.0121634375e+05
    1.1772985756e-01    1.0121633594e+05
    1.1773980409e-01    1.0121633594e+05
    1.1774974316e-01    1.0121633594e+05
    1.1775998771e-01    1.0121632031e+05
    1.1776992679e-01    1.0121631250e+05
    1.1777986586e-01    1.0121630469e+05
    1.1778980494e-01    1.0121628906e+05
    1.1779974401e-01    1.0121628906e+05
    1.1780999601e-01    1.0121628906e+05
    1.1781993508e-01    1.0121628125e+05
    1.1782987416e-01    1.0121628125e+05
    1.1783981323e-01    1.0121628125e+05
    1.1784975231e-01    1.0121627344e+05
    1.1785969138e-01    1.0121627344e+05
    1.1786994338e-01    1.0121627344e+05
    1.1787988245e-01    1.0121627344e+05
    1.1788982153e-01    1.0121625781e+05
    1.1789976060e-01    1.0121625781e+05
    1.1790969968e-01    1.0121625781e+05
    1.1791994423e-01    1.0121625781e+05
    1.1792988330e-01    1.0121625000e+05
    1.1793982238e-01    1.0121625000e+05
    1.1794976145e-01    1.0121624219e+05
    1.1795970052e-01    1.0121624219e+05
    1.1796995252e-01    1.0121622656e+05
    1.1797989160e-01    1.0121622656e+05
    1.1798983067e-01    1.0121621875e+05
    1.1799976975e-01    1.0121621875e+05
    1.1800970882e-01    1.0121621094e+05
    1.1801996082e-01    1.0121621094e+05
    1.1802989990e-01    1.0121621094e+05
    1.1803983897e-01    1.0121621094e+05
    1.1804977804e-01    1.0121621094e+05
    1.1805971712e-01    1.0121619531e+05
    1.1806996912e-01    1.0121618750e+05
    1.1807990819e-01    1.0121618750e+05
    1.1808984727e-01    1.0121617969e+05
    1.1809978634e-01    1.0121616406e+05
    1.1810972542e-01    1.0121616406e+05
    1.1811996996e-01    1.0121616406e+05
    1.1812990904e-01    1.0121616406e+05
    1.1813984811e-01    1.0121616406e+05
    1.1814978719e-01    1.0121616406e+05
    1.1815972626e-01    1.0121615625e+05
    1.1816997826e-01    1.0121615625e+05
    1.1817991734e-01    1.0121615625e+05
    1.1818985641e-01    1.0121614844e+05
    1.1819979548e-01    1.0121614844e+05
    1.1820973456e-01    1.0121613281e+05
    1.1821998656e-01    1.0121613281e+05
    1.1822992563e-01    1.0121612500e+05
    1.1823986471e-01    1.0121611719e+05
    1.1824980378e-01    1.0121610156e+05
    1.1825974286e-01    1.0121610156e+05
    1.1826999485e-01    1.0121610156e+05
    1.1827993393e-01    1.0121609375e+05
    1.1828987300e-01    1.0121609375e+05
    1.1829981208e-01    1.0121609375e+05
    1.1830975115e-01    1.0121608594e+05
    1.1831999570e-01    1.0121608594e+05
    1.1832993478e-01    1.0121608594e+05
    1.1833987385e-01    1.0121608594e+05
    1.1834981292e-01    1.0121608594e+05
    1.1835975200e-01    1.0121608594e+05
    1.1836969107e-01    1.0121607031e+05
    1.1837994307e-01    1.0121607031e+05
    1.1838988215e-01    1.0121606250e+05
    1.1839982122e-01    1.0121605469e+05
    1.1840976030e-01    1.0121603906e+05
    1.1841969937e-01    1.0121603906e+05
    1.1842995137e-01    1.0121603906e+05
    1.1843989044e-01    1.0121603125e+05
    1.1844982952e-01    1.0121603125e+05
    1.1845976859e-01    1.0121602344e+05
    1.1846970767e-01    1.0121602344e+05
    1.1847995222e-01    1.0121602344e+05
    1.1848989129e-01    1.0121602344e+05
    1.1849983782e-01    1.0121602344e+05
    1.1850977689e-01    1.0121602344e+05
    1.1851971596e-01    1.0121600781e+05
    1.1852996051e-01    1.0121600781e+05
    1.1853989959e-01    1.0121600000e+05
    1.1854983866e-01    1.0121600000e+05
    1.1855977774e-01    1.0121599219e+05
    1.1856971681e-01    1.0121597656e+05
    1.1857996881e-01    1.0121597656e+05
    1.1858990788e-01    1.0121597656e+05
    1.1859984696e-01    1.0121596875e+05
    1.1860978603e-01    1.0121596875e+05
    1.1861972511e-01    1.0121596094e+05
    1.1862997711e-01    1.0121596094e+05
    1.1863991618e-01    1.0121596094e+05
    1.1864985526e-01    1.0121596094e+05
    1.1865979433e-01    1.0121596094e+05
    1.1866973341e-01    1.0121594531e+05
    1.1867997795e-01    1.0121594531e+05
    1.1868991703e-01    1.0121593750e+05
    1.1869985610e-01    1.0121593750e+05
    1.1870979518e-01    1.0121592969e+05
    1.1871973425e-01    1.0121591406e+05
    1.1872998625e-01    1.0121591406e+05
    1.1873992532e-01    1.0121591406e+05
    1.1874986440e-01    1.0121591406e+05
    1.1875980347e-01    1.0121590625e+05
    1.1876974255e-01    1.0121590625e+05
    1.1877999455e-01    1.0121589844e+05
    1.1878993362e-01    1.0121589844e+05
    1.1879987270e-01    1.0121589844e+05
    1.1880981177e-01    1.0121589844e+05
    1.1881975085e-01    1.0121588281e+05
    1.1882968992e-01    1.0121588281e+05
    1.1883994192e-01    1.0121588281e+05
    1.1884988099e-01    1.0121587500e+05
    1.1885982007e-01    1.0121587500e+05
    1.1886975914e-01    1.0121586719e+05
    1.1887969822e-01    1.0121586719e+05
    1.1888994277e-01    1.0121585156e+05
    1.1889988184e-01    1.0121585156e+05
    1.1890982091e-01    1.0121585156e+05
    1.1891975999e-01    1.0121584375e+05
    1.1892969906e-01    1.0121584375e+05
    1.1893995106e-01    1.0121583594e+05
    1.1894989014e-01    1.0121583594e+05
    1.1895982921e-01    1.0121583594e+05
    1.1896976829e-01    1.0121583594e+05
    1.1897970736e-01    1.0121582031e+05
    1.1898995936e-01    1.0121582031e+05
    1.1899989843e-01    1.0121581250e+05
    1.1900983751e-01    1.0121581250e+05
    1.1901977658e-01    1.0121581250e+05
    1.1902971566e-01    1.0121580469e+05
    1.1903996766e-01    1.0121580469e+05
    1.1904990673e-01    1.0121578906e+05
    1.1905984581e-01    1.0121578906e+05
    1.1906978488e-01    1.0121578906e+05
    1.1907972395e-01    1.0121578125e+05
    1.1908996850e-01    1.0121578125e+05
    1.1909990758e-01    1.0121577344e+05
    1.1910984665e-01    1.0121577344e+05
    1.1911978573e-01    1.0121577344e+05
    1.1912972480e-01    1.0121577344e+05
    1.1913997680e-01    1.0121575781e+05
    1.1914991587e-01    1.0121575781e+05
    1.1915985495e-01    1.0121575000e+05
    1.1916979402e-01    1.0121575000e+05
    1.1917973310e-01    1.0121574219e+05
    1.1918998510e-01    1.0121574219e+05
    1.1919992417e-01    1.0121572656e+05
    1.1920986325e-01    1.0121572656e+05
    1.1921980232e-01    1.0121572656e+05
    1.1922974139e-01    1.0121572656e+05
    1.1923999339e-01    1.0121571875e+05
    1.1924993247e-01    1.0121571875e+05
    1.1925987154e-01    1.0121571094e+05
    1.1926981062e-01    1.0121571094e+05
    1.1927974969e-01    1.0121571094e+05
    1.1928999424e-01    1.0121569531e+05
    1.1929993331e-01    1.0121569531e+05
    1.1930987239e-01    1.0121568750e+05
    1.1931981146e-01    1.0121568750e+05
    1.1932975054e-01    1.0121567969e+05
    1.1933968961e-01    1.0121567969e+05
    1.1934994161e-01    1.0121566406e+05
    1.1935988069e-01    1.0121566406e+05
    1.1936981976e-01    1.0121566406e+05
    1.1937975883e-01    1.0121566406e+05
    1.1938969791e-01    1.0121565625e+05
    1.1939994991e-01    1.0121565625e+05
    1.1940988898e-01    1.0121564844e+05
    1.1941982806e-01    1.0121564844e+05
    1.1942976713e-01    1.0121564844e+05
    1.1943970621e-01    1.0121564844e+05
    1.1944995821e-01    1.0121563281e+05
    1.1945989728e-01    1.0121563281e+05
    1.1946983635e-01    1.0121562500e+05
    1.1947977543e-01    1.0121562500e+05
    1.1948971450e-01    1.0121561719e+05
    1.1949995905e-01    1.0121561719e+05
    1.1950989813e-01    1.0121560156e+05
    1.1951983720e-01    1.0121560156e+05
    1.1952977628e-01    1.0121560156e+05
    1.1953971535e-01    1.0121560156e+05
    1.1954996735e-01    1.0121559375e+05
    1.1955990642e-01    1.0121559375e+05
    1.1956984550e-01    1.0121558594e+05
    1.1957978457e-01    1.0121558594e+05
    1.1958972365e-01    1.0121558594e+05
    1.1959997565e-01    1.0121558594e+05
    1.1960991472e-01    1.0121557031e+05
    1.1961985379e-01    1.0121557031e+05
    1.1962979287e-01    1.0121556250e+05
    1.1963973194e-01    1.0121556250e+05
    1.1964998394e-01    1.0121555469e+05
    1.1965992302e-01    1.0121555469e+05
    1.1966986209e-01    1.0121553906e+05
    1.1967980117e-01    1.0121553906e+05
    1.1968974024e-01    1.0121553906e+05
    1.1969998479e-01    1.0121553906e+05
    1.1970992386e-01    1.0121553125e+05
    1.1971986294e-01    1.0121553125e+05
    1.1972980201e-01    1.0121552344e+05
    1.1973974109e-01    1.0121552344e+05
    1.1974999309e-01    1.0121552344e+05
    1.1975993216e-01    1.0121552344e+05
    1.1976987123e-01    1.0121550781e+05
    1.1977981031e-01    1.0121550781e+05
    1.1978974938e-01    1.0121550000e+05
    1.1980000138e-01    1.0121550000e+05
    1.1980994046e-01    1.0121549219e+05
    1.1981987953e-01    1.0121549219e+05
    1.1982981861e-01    1.0121549219e+05
    1.1983975768e-01    1.0121547656e+05
    1.1984969676e-01    1.0121547656e+05
    1.1985994875e-01    1.0121547656e+05
    1.1986988783e-01    1.0121546875e+05
    1.1987982690e-01    1.0121546875e+05
    1.1988976598e-01    1.0121546094e+05
    1.1989970505e-01    1.0121546094e+05
    1.1990994960e-01    1.0121546094e+05
    1.1991988868e-01    1.0121546094e+05
    1.1992982775e-01    1.0121544531e+05
    1.1993976682e-01    1.0121544531e+05
    1.1994970590e-01    1.0121543750e+05
    1.1995995790e-01    1.0121543750e+05
    1.1996989697e-01    1.0121543750e+05
    1.1997983605e-01    1.0121542969e+05
    1.1998977512e-01    1.0121542969e+05
    1.1999971420e-01    1.0121541406e+05
endcurve
