Curveplot
LS-DYNA keyword deck by LS-PrePost                          
Time
Pressure
Defined Connection
Pressure @ 9 #pts=12001
* Minval=     8.0856320312e+04 at time=         0.0136197871
* Maxval=     2.2274364062e+05 at time=         0.0057698069
    0.0000000000e+00    1.0120000000e+05
    9.9485323517e-06    1.0120000000e+05
    1.9965491447e-05    1.0120000000e+05
    2.9950839235e-05    1.0120000000e+05
    3.9969629142e-05    1.0120000000e+05
    4.9939790188e-05    1.0120000000e+05
    5.9938880440e-05    1.0120000000e+05
    6.9984133006e-05    1.0120000000e+05
    7.9958241258e-05    1.0120000000e+05
    8.9985609520e-05    1.0120000000e+05
    9.9977754871e-05    1.0120000000e+05
    1.0999215738e-04    1.0120000000e+05
    1.1993844964e-04    1.0120000000e+05
    1.2995494762e-04    1.0120000000e+05
    1.3995377230e-04    1.0120000000e+05
    1.4992237266e-04    1.0120000000e+05
    1.5993058332e-04    1.0120000000e+05
    1.6996980412e-04    1.0120000000e+05
    1.7994458904e-04    1.0120000000e+05
    1.8992928381e-04    1.0120000000e+05
    1.9991412410e-04    1.0120000000e+05
    2.0998110995e-04    1.0120000000e+05
    2.1993926202e-04    1.0120000000e+05
    2.2996228654e-04    1.0120000000e+05
    2.3994124786e-04    1.0120000000e+05
    2.4995204876e-04    1.0120000000e+05
    2.5999077479e-04    1.0120000000e+05
    2.6995677035e-04    1.0120000000e+05
    2.7994471020e-04    1.0120000000e+05
    2.8995287721e-04    1.0120000000e+05
    2.9997914680e-04    1.0120000000e+05
    3.0991807580e-04    1.0120000000e+05
    3.1997481710e-04    1.0120000000e+05
    3.2993775676e-04    1.0120000000e+05
    3.3990963129e-04    1.0120000000e+05
    3.4999780473e-04    1.0120000000e+05
    3.5998426029e-04    1.0120000000e+05
    3.6997444113e-04    1.0120000000e+05
    3.7996660103e-04    1.0120000000e+05
    3.8995916839e-04    1.0120000000e+05
    3.9994966937e-04    1.0120000000e+05
    4.0993600851e-04    1.0120000000e+05
    4.1991553735e-04    1.0120000000e+05
    4.2988950736e-04    1.0120000000e+05
    4.3997477042e-04    1.0120000000e+05
    4.4992909534e-04    1.0120000000e+05
    4.5999328722e-04    1.0120000000e+05
    4.6991553972e-04    1.0120000000e+05
    4.7995086061e-04    1.0120000000e+05
    4.8996933037e-04    1.0120000000e+05
    4.9996888265e-04    1.0120000000e+05
    5.0994730555e-04    1.0120000000e+05
    5.1990232896e-04    1.0120000000e+05
    5.2996235900e-04    1.0120000000e+05
    5.3999997908e-04    1.0120000000e+05
    5.4987415206e-04    1.0120000000e+05
    5.5999052711e-04    1.0120000000e+05
    5.6993885664e-04    1.0120000000e+05
    5.7999294950e-04    1.0120000000e+05
    5.8987084776e-04    1.0120000000e+05
    5.9999409132e-04    1.0120000000e+05
    6.0993613442e-04    1.0120000000e+05
    6.1998376623e-04    1.0120000000e+05
    6.2998954672e-04    1.0120000000e+05
    6.3995068194e-04    1.0120000000e+05
    6.4986420330e-04    1.0120000000e+05
    6.5987982089e-04    1.0120000000e+05
    6.6999916453e-04    1.0120000000e+05
    6.7991262767e-04    1.0120000000e+05
    6.8992510205e-04    1.0120000000e+05
    6.9988111500e-04    1.0120000000e+05
    7.0994003909e-04    1.0120000000e+05
    7.1993941674e-04    1.0120000000e+05
    7.2987587191e-04    1.0120000000e+05
    7.3991157115e-04    1.0120000000e+05
    7.4988079723e-04    1.0120000000e+05
    7.5994903455e-04    1.0120000000e+05
    7.6994736446e-04    1.0120000000e+05
    7.7987241093e-04    1.0120000000e+05
    7.8989431495e-04    1.0120000000e+05
    7.9983909382e-04    1.0120000000e+05
    8.0987391993e-04    1.0120000000e+05
    8.1982900156e-04    1.0120000000e+05
    8.2988489885e-04    1.0120000000e+05
    8.3985581296e-04    1.0120000000e+05
    8.4992166376e-04    1.0120000000e+05
    8.5989851505e-04    1.0120000000e+05
    8.6996966274e-04    1.0120000000e+05
    8.7994756177e-04    1.0120000000e+05
    8.8982813759e-04    1.0120000000e+05
    8.9999299962e-04    1.0120000000e+05
    9.0986548457e-04    1.0120000000e+05
    9.1982871527e-04    1.0120000000e+05
    9.2988455435e-04    1.0120000000e+05
    9.3983410625e-04    1.0120000000e+05
    9.4987550983e-04    1.0120000000e+05
    9.5980631886e-04    1.0120000000e+05
    9.6982793184e-04    1.0120000000e+05
    9.7994192038e-04    1.0120000000e+05
    9.8994036671e-04    1.0120000000e+05
    9.9981902167e-04    1.0120000000e+05
    1.0097873164e-03    1.0120000000e+05
    1.0198458331e-03    1.0120000000e+05
    1.0299968999e-03    1.0120000000e+05
    1.0398037266e-03    1.0120000000e+05
    1.0499187047e-03    1.0120000000e+05
    1.0599036468e-03    1.0120000000e+05
    1.0699786944e-03    1.0120000000e+05
    1.0799183510e-03    1.0120000000e+05
    1.0899481131e-03    1.0120000000e+05
    1.0998356156e-03    1.0120000000e+05
    1.1098041432e-03    1.0120000000e+05
    1.1198602151e-03    1.0120000000e+05
    1.1297711171e-03    1.0120000000e+05
    1.1397714261e-03    1.0120000000e+05
    1.1498618405e-03    1.0120000000e+05
    1.1597999837e-03    1.0120000000e+05
    1.1698262533e-03    1.0120000000e+05
    1.1799446074e-03    1.0120000000e+05
    1.1899118545e-03    1.0120000000e+05
    1.1999714188e-03    1.0120000000e+05
    1.2098671868e-03    1.0120000000e+05
    1.2198520126e-03    1.0120000000e+05
    1.2299263617e-03    1.0120000000e+05
    1.2398303952e-03    1.0120000000e+05
    1.2498229044e-03    1.0120000000e+05
    1.2599054025e-03    1.0120000000e+05
    1.2698109495e-03    1.0120000000e+05
    1.2798057869e-03    1.0120000000e+05
    1.2898903806e-03    1.0120000000e+05
    1.2997915037e-03    1.0120000000e+05
    1.3097808696e-03    1.0120000000e+05
    1.3198615052e-03    1.0120000000e+05
    1.3297506375e-03    1.0120000000e+05
    1.3397288276e-03    1.0120000000e+05
    1.3497978216e-03    1.0120000000e+05
    1.3599593658e-03    1.0120000000e+05
    1.3699211413e-03    1.0120000000e+05
    1.3799743028e-03    1.0120000000e+05
    1.3898201287e-03    1.0120000000e+05
    1.3997553615e-03    1.0120000000e+05
    1.4097815147e-03    1.0120000000e+05
    1.4199008001e-03    1.0120000000e+05
    1.4298037859e-03    1.0120000000e+05
    1.4397978084e-03    1.0120000000e+05
    1.4498849632e-03    1.0120000000e+05
    1.4597473200e-03    1.0120000000e+05
    1.4697007136e-03    1.0120000000e+05
    1.4797471231e-03    1.0120000000e+05
    1.4898880618e-03    1.0120000000e+05
    1.4997937251e-03    1.0120000000e+05
    1.5097850701e-03    1.0120000000e+05
    1.5198749024e-03    1.0120000000e+05
    1.5297244536e-03    1.0120000000e+05
    1.5396669041e-03    1.0120000000e+05
    1.5497040004e-03    1.0120000000e+05
    1.5598378377e-03    1.0120000000e+05
    1.5697163763e-03    1.0120000000e+05
    1.5796892112e-03    1.0120000000e+05
    1.5897586709e-03    1.0120000000e+05
    1.5999270836e-03    1.0120000000e+05
    1.6098284395e-03    1.0120000000e+05
    1.6198258381e-03    1.0120000000e+05
    1.6299221897e-03    1.0120000000e+05
    1.6397398431e-03    1.0120000000e+05
    1.6496536555e-03    1.0120000000e+05
    1.6596610658e-03    1.0120000000e+05
    1.6697737155e-03    1.0120000000e+05
    1.6799896257e-03    1.0120000000e+05
    1.6899124021e-03    1.0120000000e+05
    1.6999354120e-03    1.0120000000e+05
    1.7096543452e-03    1.0120000000e+05
    1.7198815476e-03    1.0120000000e+05
    1.7298017628e-03    1.0120000000e+05
    1.7398239579e-03    1.0120000000e+05
    1.7499515088e-03    1.0120000000e+05
    1.7597579863e-03    1.0120000000e+05
    1.7696649302e-03    1.0120000000e+05
    1.7796574393e-03    1.0120000000e+05
    1.7897163052e-03    1.0120000000e+05
    1.7998182448e-03    1.0120000000e+05
    1.8099563895e-03    1.0120000000e+05
    1.8196920864e-03    1.0120000000e+05
    1.8299046205e-03    1.0120000000e+05
    1.8396886298e-03    1.0120000000e+05
    1.8498933641e-03    1.0120000000e+05
    1.8597021699e-03    1.0120000000e+05
    1.8698999193e-03    1.0120000000e+05
    1.8796933582e-03    1.0120000000e+05
    1.8899078714e-03    1.0120000000e+05
    1.8996831495e-03    1.0120000000e+05
    1.9099016208e-03    1.0120000000e+05
    1.9196460489e-03    1.0120000000e+05
    1.9298479892e-03    1.0120000000e+05
    1.9395978888e-03    1.0120000000e+05
    1.9497969188e-03    1.0120000000e+05
    1.9599718507e-03    1.0120000000e+05
    1.9697402604e-03    1.0120000000e+05
    1.9799645524e-03    1.0120000000e+05
    1.9896766171e-03    1.0120000000e+05
    1.9998527132e-03    1.0120000000e+05
    2.0096658263e-03    1.0120000000e+05
    2.0199154969e-03    1.0120000000e+05
    2.0297437441e-03    1.0120000000e+05
    2.0396050531e-03    1.0120000000e+05
    2.0499099046e-03    1.0120000000e+05
    2.0598166157e-03    1.0120000000e+05
    2.0697372966e-03    1.0120000000e+05
    2.0796679892e-03    1.0120000000e+05
    2.0896031056e-03    1.0120000000e+05
    2.0999819972e-03    1.0120000000e+05
    2.1099268924e-03    1.0120000000e+05
    2.1198685281e-03    1.0120000000e+05
    2.1297754720e-03    1.0120000000e+05
    2.1396509837e-03    1.0120000000e+05
    2.1499549039e-03    1.0120000000e+05
    2.1597533487e-03    1.0120000000e+05
    2.1699471399e-03    1.0120000000e+05
    2.1796270739e-03    1.0120000000e+05
    2.1896618418e-03    1.0120000000e+05
    2.1996102296e-03    1.0120000000e+05
    2.2099006455e-03    1.0120000000e+05
    2.2196776699e-03    1.0120000000e+05
    2.2297927644e-03    1.0120000000e+05
    2.2398203146e-03    1.0120000000e+05
    2.2497614846e-03    1.0120000000e+05
    2.2596176714e-03    1.0120000000e+05
    2.2697960958e-03    1.0120000000e+05
    2.2798855789e-03    1.0120000000e+05
    2.2898875177e-03    1.0120000000e+05
    2.2998028435e-03    1.0120000000e+05
    2.3096331861e-03    1.0120000000e+05
    2.3197678383e-03    1.0120000000e+05
    2.3298128508e-03    1.0120000000e+05
    2.3397696204e-03    1.0120000000e+05
    2.3496388458e-03    1.0120000000e+05
    2.3597967811e-03    1.0120000000e+05
    2.3698629811e-03    1.0120000000e+05
    2.3798390757e-03    1.0120000000e+05
    2.3897262290e-03    1.0120000000e+05
    2.3998857941e-03    1.0120000000e+05
    2.4099515285e-03    1.0120000000e+05
    2.4199241307e-03    1.0120000000e+05
    2.4298047647e-03    1.0120000000e+05
    2.4399426766e-03    1.0120000000e+05
    2.4499834981e-03    1.0120000000e+05
    2.4599293247e-03    1.0120000000e+05
    2.4697801564e-03    1.0120000000e+05
    2.4798717350e-03    1.0120000000e+05
    2.4898634292e-03    1.0120000000e+05
    2.4997561704e-03    1.0120000000e+05
    2.5098752230e-03    1.0120000000e+05
    2.5198899675e-03    1.0120000000e+05
    2.5298013352e-03    1.0120000000e+05
    2.5399248116e-03    1.0120000000e+05
    2.5499388576e-03    1.0120000000e+05
    2.5598444045e-03    1.0120000000e+05
    2.5699459948e-03    1.0120000000e+05
    2.5799332652e-03    1.0120000000e+05
    2.5898059830e-03    1.0120000000e+05
    2.5998591445e-03    1.0120000000e+05
    2.6097916998e-03    1.0120000000e+05
    2.6198904961e-03    1.0120000000e+05
    2.6298614684e-03    1.0120000000e+05
    2.6399842463e-03    1.0120000000e+05
    2.6499719825e-03    1.0120000000e+05
    2.6598239783e-03    1.0120000000e+05
    2.6698079892e-03    1.0120000000e+05
    2.6799119078e-03    1.0120000000e+05
    2.6898630895e-03    1.0120000000e+05
    2.6999162510e-03    1.0120000000e+05
    2.7098064311e-03    1.0120000000e+05
    2.7197788004e-03    1.0120000000e+05
    2.7298191562e-03    1.0120000000e+05
    2.7399114333e-03    1.0120000000e+05
    2.7498058043e-03    1.0120000000e+05
    2.7599551249e-03    1.0120000000e+05
    2.7698797639e-03    1.0120000000e+05
    2.7797915973e-03    1.0120000000e+05
    2.7898808476e-03    1.0120000000e+05
    2.7998990845e-03    1.0120000000e+05
    2.8098174371e-03    1.0120000000e+05
    2.8199888766e-03    1.0120000000e+05
    2.8299626429e-03    1.0120000000e+05
    2.8398679569e-03    1.0120000000e+05
    2.8499546461e-03    1.0120000000e+05
    2.8598976787e-03    1.0120000000e+05
    2.8699338436e-03    1.0120000000e+05
    2.8799986467e-03    1.0120000000e+05
    2.8899838217e-03    1.0120000000e+05
    2.8999270871e-03    1.0120000000e+05
    2.9099499807e-03    1.0120000000e+05
    2.9199295677e-03    1.0120000000e+05
    2.9299308080e-03    1.0120000000e+05
    2.9398847837e-03    1.0120000000e+05
    2.9499572702e-03    1.0120000000e+05
    2.9598893598e-03    1.0120000000e+05
    2.9698924627e-03    1.0120000000e+05
    2.9798881151e-03    1.0120000000e+05
    2.9899037909e-03    1.0120000000e+05
    2.9999669641e-03    1.0120000000e+05
    3.0099481810e-03    1.0120000000e+05
    3.0199158937e-03    1.0120000000e+05
    3.0299446080e-03    1.0120000000e+05
    3.0399058014e-03    1.0120000000e+05
    3.0499594286e-03    1.0120000000e+05
    3.0599033926e-03    1.0120000000e+05
    3.0699586496e-03    1.0120000000e+05
    3.0798984226e-03    1.0120000000e+05
    3.0898957048e-03    1.0120000000e+05
    3.0998040456e-03    1.0120000000e+05
    3.1099652406e-03    1.0120000000e+05
    3.1198004726e-03    1.0120000000e+05
    3.1299013644e-03    1.0120000000e+05
    3.1398616266e-03    1.0120000000e+05
    3.1498805620e-03    1.0120000000e+05
    3.1599611975e-03    1.0120000000e+05
    3.1698774546e-03    1.0120000000e+05
    3.1798565760e-03    1.0120000000e+05
    3.1898720190e-03    1.0120000000e+05
    3.1999680214e-03    1.0120000000e+05
    3.2098633237e-03    1.0120000000e+05
    3.2198210247e-03    1.0120000000e+05
    3.2298234291e-03    1.0120000000e+05
    3.2398612238e-03    1.0120000000e+05
    3.2499644440e-03    1.0120000000e+05
    3.2598620746e-03    1.0120000000e+05
    3.2698104624e-03    1.0120000000e+05
    3.2797912136e-03    1.0120000000e+05
    3.2898201607e-03    1.0120000000e+05
    3.2998882234e-03    1.0120000000e+05
    3.3099753782e-03    1.0120000000e+05
    3.3198930323e-03    1.0120000000e+05
    3.3298309427e-03    1.0120000000e+05
    3.3397928346e-03    1.0120000000e+05
    3.3498113044e-03    1.0120000000e+05
    3.3598353621e-03    1.0120000000e+05
    3.3699162304e-03    1.0120000000e+05
    3.3797875512e-03    1.0120000000e+05
    3.3898930997e-03    1.0120000000e+05
    3.3998384606e-03    1.0120000000e+05
    3.4097814932e-03    1.0120000000e+05
    3.4199852962e-03    1.0120000000e+05
    3.4297774546e-03    1.0120000000e+05
    3.4397824202e-03    1.0120000000e+05
    3.4498344176e-03    1.0120000000e+05
    3.4599320497e-03    1.0120000000e+05
    3.4697544761e-03    1.0120000000e+05
    3.4799061250e-03    1.0120000000e+05
    3.4898088779e-03    1.0120000000e+05
    3.4999463242e-03    1.0120000000e+05
    3.5099112429e-03    1.0120000000e+05
    3.5198561382e-03    1.0120000000e+05
    3.5298236180e-03    1.0120000000e+05
    3.5398323089e-03    1.0120000000e+05
    3.5498326179e-03    1.0120000000e+05
    3.5598569084e-03    1.0120000000e+05
    3.5699091386e-03    1.0120000000e+05
    3.5799599718e-03    1.0120000000e+05
    3.5897758789e-03    1.0120000000e+05
    3.5998534877e-03    1.0120000000e+05
    3.6099385470e-03    1.0120000000e+05
    3.6197789013e-03    1.0120000000e+05
    3.6298760679e-03    1.0120000000e+05
    3.6399753299e-03    1.0120000000e+05
    3.6498245317e-03    1.0120000000e+05
    3.6599258892e-03    1.0120000000e+05
    3.6697746255e-03    1.0120000000e+05
    3.6798764486e-03    1.0120000000e+05
    3.6899775732e-03    1.0120000000e+05
    3.6998260766e-03    1.0120000000e+05
    3.7099288311e-03    1.0120000000e+05
    3.7197771017e-03    1.0120000000e+05
    3.7298810203e-03    1.0120000000e+05
    3.7399893627e-03    1.0120000000e+05
    3.7498467136e-03    1.0120000000e+05
    3.7599606439e-03    1.0120000000e+05
    3.7698308006e-03    1.0120000000e+05
    3.7799598649e-03    1.0120000000e+05
    3.7898435257e-03    1.0120000000e+05
    3.7999844644e-03    1.0120000000e+05
    3.8098853547e-03    1.0120000000e+05
    3.8197943941e-03    1.0120000000e+05
    3.8299646694e-03    1.0120000000e+05
    3.8398879115e-03    1.0120000000e+05
    3.8498272188e-03    1.0120000000e+05
    3.8597737439e-03    1.0120000000e+05
    3.8699808065e-03    1.0120000000e+05
    3.8799471222e-03    1.0120000000e+05
    3.8899248466e-03    1.0120000000e+05
    3.8999104872e-03    1.0120000000e+05
    3.9099012502e-03    1.0120000000e+05
    3.9199092425e-03    1.0120000000e+05
    3.9299242198e-03    1.0120000000e+05
    3.9399475791e-03    1.0120000000e+05
    3.9499821141e-03    1.0120000000e+05
    3.9597703144e-03    1.0120000000e+05
    3.9698225446e-03    1.0120000000e+05
    3.9798868820e-03    1.0120000000e+05
    3.9899577387e-03    1.0120000000e+05
    3.9997836575e-03    1.0120000000e+05
    4.0098726749e-03    1.0120000000e+05
    4.0199747309e-03    1.0120000000e+05
    4.0298197418e-03    1.0120000000e+05
    4.0399427526e-03    1.0120000000e+05
    4.0498077869e-03    1.0120000000e+05
    4.0599410422e-03    1.0120000000e+05
    4.0698251687e-03    1.0120000000e+05
    4.0799886920e-03    1.0120000000e+05
    4.0898835286e-03    1.0120000000e+05
    4.0997928008e-03    1.0120000000e+05
    4.1099740192e-03    1.0120000000e+05
    4.1199033149e-03    1.0120000000e+05
    4.1298279539e-03    1.0120000000e+05
    4.1397698224e-03    1.0120000000e+05
    4.1499845684e-03    1.0120000000e+05
    4.1599432006e-03    1.0120000000e+05
    4.1699088179e-03    1.0120000000e+05
    4.1798758321e-03    1.0120000000e+05
    4.1898591444e-03    1.0120000000e+05
    4.1998447850e-03    1.0120000000e+05
    4.2098429985e-03    1.0120000000e+05
    4.2198398151e-03    1.0120000000e+05
    4.2298599146e-03    1.0120000000e+05
    4.2398665100e-03    1.0120000000e+05
    4.2499005795e-03    1.0120000000e+05
    4.2599262670e-03    1.0120000000e+05
    4.2699752375e-03    1.0120000000e+05
    4.2797466740e-03    1.0120000000e+05
    4.2898110114e-03    1.0120000000e+05
    4.2998599820e-03    1.0120000000e+05
    4.3099354953e-03    1.0120000000e+05
    4.3199979700e-03    1.0120000000e+05
    4.3298220262e-03    1.0120000000e+05
    4.3399035931e-03    1.0120000000e+05
    4.3497378938e-03    1.0120000000e+05
    4.3598278426e-03    1.0120000000e+05
    4.3699345551e-03    1.0120000000e+05
    4.3797725812e-03    1.0120000000e+05
    4.3898937292e-03    1.0120000000e+05
    4.3997471221e-03    1.0120000000e+05
    4.4098766521e-03    1.0120000000e+05
    4.4197449461e-03    1.0120000000e+05
    4.4298795983e-03    1.0120000000e+05
    4.4397516176e-03    1.0120000000e+05
    4.4498951174e-03    1.0120000000e+05
    4.4597932138e-03    1.0120000000e+05
    4.4699646533e-03    1.0120000000e+05
    4.4798683375e-03    1.0120000000e+05
    4.4897631742e-03    1.0120000000e+05
    4.4999253005e-03    1.0120000000e+05
    4.5098308474e-03    1.0120000000e+05
    4.5197494328e-03    1.0120000000e+05
    4.5299390331e-03    1.0120000000e+05
    4.5398576185e-03    1.0120000000e+05
    4.5497738756e-03    1.0120000000e+05
    4.5599560253e-03    1.0120000000e+05
    4.5698708855e-03    1.0120000000e+05
    4.5797848143e-03    1.0120000000e+05
    4.5899706893e-03    1.0120000000e+05
    4.5998939313e-03    1.0120000000e+05
    4.6098199673e-03    1.0120000000e+05
    4.6197441407e-03    1.0120000000e+05
    4.6299356036e-03    1.0120000000e+05
    4.6398569830e-03    1.0120000000e+05
    4.6497778967e-03    1.0120000000e+05
    4.6599665657e-03    1.0120000000e+05
    4.6698874794e-03    1.0120000000e+05
    4.6798083931e-03    1.0120000000e+05
    4.6899975277e-03    1.0120000000e+05
    4.6999179758e-03    1.0120000000e+05
    4.7098379582e-03    1.0120000000e+05
    4.7197574750e-03    1.0120000000e+05
    4.7299452126e-03    1.0120000000e+05
    4.7398637980e-03    1.0120000000e+05
    4.7497814521e-03    1.0120000000e+05
    4.7599677928e-03    1.0120000000e+05
    4.7698868439e-03    1.0120000000e+05
    4.7798044980e-03    1.0120000000e+05
    4.7899880446e-03    1.0120000000e+05
    4.7999070957e-03    1.0120000000e+05
    4.8098308034e-03    1.0120000000e+05
    4.8197545111e-03    1.0120000000e+05
    4.8299496993e-03    1.0120000000e+05
    4.8398757353e-03    1.0120000000e+05
    4.8498013057e-03    1.0120000000e+05
    4.8599932343e-03    1.0120000000e+05
    4.8699155450e-03    1.0120000000e+05
    4.8798373900e-03    1.0120000000e+05
    4.8897592351e-03    1.0120000000e+05
    4.8999506980e-03    1.0120000000e+05
    4.9098795280e-03    1.0120000000e+05
    4.9198088236e-03    1.0120000000e+05
    4.9297371879e-03    1.0120000000e+05
    4.9399328418e-03    1.0120000000e+05
    4.9498593435e-03    1.0120000000e+05
    4.9597853795e-03    1.0120000000e+05
    4.9699787050e-03    1.0120000000e+05
    4.9799052067e-03    1.0120000000e+05
    4.9898363650e-03    1.0120000000e+05
    4.9997665919e-03    1.0120000000e+05
    5.0099636428e-03    1.0120000000e+05
    5.0198915415e-03    1.0120000000e+05
    5.0298185088e-03    1.0120000000e+05
    5.0397505984e-03    1.0120000000e+05
    5.0499532372e-03    1.0120000000e+05
    5.0598857924e-03    1.0120000000e+05
    5.0698178820e-03    1.0120000000e+05
    5.0797485746e-03    1.0120000000e+05
    5.0899507478e-03    1.0120000000e+05
    5.0998879597e-03    1.0120000000e+05
    5.1098237745e-03    1.0120000000e+05
    5.1197586581e-03    1.0120000000e+05
    5.1299608313e-03    1.0120000000e+05
    5.1398985088e-03    1.0120000000e+05
    5.1498375833e-03    1.0120000000e+05
    5.1597757265e-03    1.0120000000e+05
    5.1699811593e-03    1.0120000000e+05
    5.1799193025e-03    1.0120000000e+05
    5.1898607053e-03    1.0120000000e+05
    5.1998007111e-03    1.0120000000e+05
    5.2097397856e-03    1.0120000000e+05
    5.2199484780e-03    1.0120000000e+05
    5.2298908122e-03    1.0120000000e+05
    5.2398322150e-03    1.0120000000e+05
    5.2497731522e-03    1.0120000000e+05
    5.2599827759e-03    1.0120000000e+05
    5.2699255757e-03    1.0120000000e+05
    5.2798669785e-03    1.0120000000e+05
    5.2898083813e-03    1.0120000000e+05
    5.2997507155e-03    1.0120000000e+05
    5.3099617362e-03    1.0120000000e+05
    5.3199036047e-03    1.0120000000e+05
    5.3298450075e-03    1.0120000000e+05
    5.3397873417e-03    1.0120000000e+05
    5.3499974310e-03    1.0120000000e+05
    5.3599388339e-03    1.0120000000e+05
    5.3698802367e-03    1.0120000000e+05
    5.3798211738e-03    1.0120000000e+05
    5.3897611797e-03    1.0120000000e+05
    5.3999703377e-03    1.0120000000e+05
    5.4099108092e-03    1.0120000000e+05
    5.4198531434e-03    1.0120000000e+05
    5.4297945462e-03    1.0120000000e+05
    5.4397354834e-03    1.0120000000e+05
    5.4499446414e-03    1.0120000000e+05
    5.4598841816e-03    1.0120000000e+05
    5.4698237218e-03    1.0120000000e+05
    5.4797632620e-03    1.0120000000e+05
    5.4899714887e-03    1.0120000000e+05
    5.4999114946e-03    1.0120000000e+05
    5.5098515004e-03    1.0120000000e+05
    5.5197910406e-03    1.0120000000e+05
    5.5299983360e-03    1.0120000000e+05
    5.5399374105e-03    1.0120000000e+05
    5.5498755537e-03    1.0120000000e+05
    5.5598132312e-03    1.0120000000e+05
    5.5697509088e-03    1.0120000000e+05
    5.5799563415e-03    1.0120000000e+05
    5.5898930877e-03    1.0120000000e+05
    5.5998302996e-03    1.0120000000e+05
    5.6097675115e-03    1.0120000000e+05
    5.6199738756e-03    1.0120000000e+05
    5.6299115531e-03    1.0120000000e+05
    5.6398487650e-03    1.0120000000e+05
    5.6497850455e-03    1.0120000000e+05
    5.6599895470e-03    1.0120000000e+05
    5.6699248962e-03    1.0120000000e+05
    5.6798602454e-03    1.0120000000e+05
    5.6897960603e-03    1.0120000000e+05
    5.6997314095e-03    1.0120000000e+05
    5.7099354453e-03    1.0120000000e+05
    5.7198698632e-03    1.0120000000e+05
    5.7298042811e-03    1.0120000000e+05
    5.7397382334e-03    1.0120000000e+05
    5.7499399409e-03    1.0120010156e+05
    5.7598738931e-03    1.1400328125e+05
    5.7698069140e-03    2.2274364062e+05
    5.7797404006e-03    2.2161120312e+05
    5.7899416424e-03    2.2069335938e+05
    5.7998741977e-03    2.1979642188e+05
    5.8098062873e-03    2.1890723438e+05
    5.8197393082e-03    2.1802385938e+05
    5.8299438097e-03    2.1712312500e+05
    5.8398805559e-03    2.1625389062e+05
    5.8498149738e-03    2.1539250000e+05
    5.8597549796e-03    2.1453737500e+05
    5.8699725196e-03    2.1366442188e+05
    5.8799264953e-03    2.1282037500e+05
    5.8898800053e-03    2.1198357812e+05
    5.8998405002e-03    2.1115354688e+05
    5.9098172933e-03    2.1032842188e+05
    5.9198071249e-03    2.0950795312e+05
    5.9298006818e-03    2.0869331250e+05
    5.9398040175e-03    2.0788487500e+05
    5.9498185292e-03    2.0708242188e+05
    5.9598460793e-03    2.0628514062e+05
    5.9698824771e-03    2.0549254688e+05
    5.9799305163e-03    2.0470475000e+05
    5.9899897315e-03    2.0392257812e+05
    5.9997858480e-03    2.0316792188e+05
    6.0098604299e-03    2.0239782812e+05
    6.0199522413e-03    2.0163107812e+05
    6.0297814198e-03    2.0088882812e+05
    6.0398923233e-03    2.0013220312e+05
    6.0497354716e-03    1.9940270312e+05
    6.0598603450e-03    1.9865762500e+05
    6.0697277077e-03    1.9793504688e+05
    6.0798781924e-03    1.9719720312e+05
    6.0897571966e-03    1.9648643750e+05
    6.0999207199e-03    1.9576193750e+05
    6.1098188162e-03    1.9506017188e+05
    6.1197299510e-03    1.9436089062e+05
    6.1299260706e-03    1.9364712500e+05
    6.1398479156e-03    1.9295957812e+05
    6.1497827992e-03    1.9227706250e+05
    6.1597255990e-03    1.9159820312e+05
    6.1699529178e-03    1.9090417188e+05
    6.1799157411e-03    1.9023306250e+05
    6.1898785643e-03    1.8956735938e+05
    6.1998493038e-03    1.8890645312e+05
    6.2098340131e-03    1.8824943750e+05
    6.2198224477e-03    1.8759670312e+05
    6.2298253179e-03    1.8694762500e+05
    6.2398295850e-03    1.8630307812e+05
    6.2498333864e-03    1.8566351562e+05
    6.2598525546e-03    1.8502779688e+05
    6.2698791735e-03    1.8439617188e+05
    6.2799141742e-03    1.8376839062e+05
    6.2899575569e-03    1.8314451562e+05
    6.2999962829e-03    1.8252567188e+05
    6.3097695820e-03    1.8192773438e+05
    6.3198357821e-03    1.8131620312e+05
    6.3298987225e-03    1.8070912500e+05
    6.3399747014e-03    1.8010557812e+05
    6.3497675583e-03    1.7952325000e+05
    6.3598440029e-03    1.7892845312e+05
    6.3699455932e-03    1.7833631250e+05
    6.3797617331e-03    1.7776479688e+05
    6.3898647204e-03    1.7718079688e+05
    6.3999793492e-03    1.7660048438e+05
    6.4098057337e-03    1.7604068750e+05
    6.4199320041e-03    1.7546773438e+05
    6.4297858626e-03    1.7491400000e+05
    6.4399125986e-03    1.7434890625e+05
    6.4497767016e-03    1.7380246875e+05
    6.4599206671e-03    1.7324445312e+05
    6.4697847702e-03    1.7270554688e+05
    6.4799510874e-03    1.7215384375e+05
    6.4898240380e-03    1.7162168750e+05
    6.4999912865e-03    1.7107773438e+05
    6.5098926425e-03    1.7055198438e+05
    6.5197851509e-03    1.7003032812e+05
    6.5299752168e-03    1.6949620312e+05
    6.5398835577e-03    1.6898001562e+05
    6.5497900359e-03    1.6846771875e+05
    6.5597165376e-03    1.6795839062e+05
    6.5699247643e-03    1.6743814062e+05
    6.5798494034e-03    1.6693535938e+05
    6.5897866152e-03    1.6643531250e+05
    6.5999985673e-03    1.6592545312e+05
    6.6099390388e-03    1.6543267188e+05
    6.6198948771e-03    1.6494198438e+05
    6.6298455931e-03    1.6445457812e+05
    6.6398084164e-03    1.6397001562e+05
    6.6497721709e-03    1.6348896875e+05
    6.6597363912e-03    1.6301112500e+05
    6.6697150469e-03    1.6253554688e+05
    6.6799800843e-03    1.6204957812e+05
    6.6899624653e-03    1.6158032812e+05
    6.6999527626e-03    1.6111384375e+05
    6.7099393345e-03    1.6065059375e+05
    6.7199361511e-03    1.6018987500e+05
    6.7299441434e-03    1.5973167188e+05
    6.7399526015e-03    1.5927654688e+05
    6.7499694414e-03    1.5882407812e+05
    6.7599858157e-03    1.5837454688e+05
    6.7697172053e-03    1.5794065625e+05
    6.7797456868e-03    1.5749637500e+05
    6.7897788249e-03    1.5705479688e+05
    6.7998180166e-03    1.5661589062e+05
    6.8098641932e-03    1.5617956250e+05
    6.8199099042e-03    1.5574606250e+05
    6.8299593404e-03    1.5531520312e+05
    6.8397279829e-03    1.5489910938e+05
    6.8497876637e-03    1.5447348438e+05
    6.8598580547e-03    1.5405025000e+05
    6.8699312396e-03    1.5362946875e+05
    6.8797185086e-03    1.5322310938e+05
    6.8897996098e-03    1.5280714062e+05
    6.8998867646e-03    1.5239375000e+05
    6.9099809043e-03    1.5198290625e+05
    6.9197914563e-03    1.5158620312e+05
    6.9298944436e-03    1.5118025000e+05
    6.9397133775e-03    1.5078817188e+05
    6.9498233497e-03    1.5038684375e+05
    6.9599351846e-03    1.4998782812e+05
    6.9697652943e-03    1.4960250000e+05
    6.9798915647e-03    1.4920834375e+05
    6.9897356443e-03    1.4882770312e+05
    6.9998740219e-03    1.4843792188e+05
    7.0097283460e-03    1.4806134375e+05
    7.0198746398e-03    1.4767607812e+05
    7.0297322236e-03    1.4730417188e+05
    7.0398878306e-03    1.4692332812e+05
    7.0497593842e-03    1.4655540625e+05
    7.0599280298e-03    1.4617906250e+05
    7.0698107593e-03    1.4581560938e+05
    7.0799887180e-03    1.4544335938e+05
    7.0898788981e-03    1.4508376562e+05
    7.0997760631e-03    1.4472625000e+05
    7.1099698544e-03    1.4436051562e+05
    7.1198763326e-03    1.4400726562e+05
    7.1297911927e-03    1.4365575000e+05
    7.1399989538e-03    1.4329609375e+05
    7.1499217302e-03    1.4294870312e+05
    7.1598514915e-03    1.4260318750e+05
    7.1697831154e-03    1.4225968750e+05
    7.1797198616e-03    1.4191804688e+05
    7.1899550967e-03    1.4156832812e+05
    7.1999030188e-03    1.4123048438e+05
    7.2098602541e-03    1.4089443750e+05
    7.2198212147e-03    1.4056029688e+05
    7.2297845036e-03    1.4022806250e+05
    7.2397547774e-03    1.3989759375e+05
    7.2497292422e-03    1.3956893750e+05
    7.2597065009e-03    1.3924220312e+05
    7.2699869052e-03    1.3890759375e+05
    7.2799790651e-03    1.3858440625e+05
    7.2899782099e-03    1.3826292188e+05
    7.2999834083e-03    1.3794315625e+05
    7.3099904694e-03    1.3762521875e+05
    7.3197078891e-03    1.3731829688e+05
    7.3297247291e-03    1.3700381250e+05
    7.3397490196e-03    1.3669101562e+05
    7.3497812264e-03    1.3637968750e+05
    7.3598148301e-03    1.3607006250e+05
    7.3698526248e-03    1.3576232812e+05
    7.3798969388e-03    1.3545648438e+05
    7.3899505660e-03    1.3515220312e+05
    7.3997154832e-03    1.3485804688e+05
    7.4097872712e-03    1.3455621875e+05
    7.4198646471e-03    1.3425618750e+05
    7.4299466796e-03    1.3395804688e+05
    7.4397274293e-03    1.3367048438e+05
    7.4498006143e-03    1.3337592188e+05
    7.4598868378e-03    1.3308273438e+05
    7.4699777178e-03    1.3279106250e+05
    7.4797845446e-03    1.3250921875e+05
    7.4898949824e-03    1.3222028125e+05
    7.4997120537e-03    1.3194146875e+05
    7.5098262168e-03    1.3165590625e+05
    7.5199389830e-03    1.3137204688e+05
    7.5297541916e-03    1.3109804688e+05
    7.5398832560e-03    1.3081696875e+05
    7.5497203507e-03    1.3054552344e+05
    7.5598573312e-03    1.3026746875e+05
    7.5697018765e-03    1.2999894531e+05
    7.5798421167e-03    1.2972399219e+05
    7.5899879448e-03    1.2945042969e+05
    7.5998413377e-03    1.2918635156e+05
    7.6097054407e-03    1.2892341406e+05
    7.6198861934e-03    1.2865355469e+05
    7.6297768392e-03    1.2839285156e+05
    7.6399715617e-03    1.2812567969e+05
    7.6498733833e-03    1.2786766406e+05
    7.6597793959e-03    1.2761105469e+05
    7.6699764468e-03    1.2734850000e+05
    7.6798796654e-03    1.2709506250e+05
    7.6897847466e-03    1.2684283594e+05
    7.6999925077e-03    1.2658417969e+05
    7.7099069022e-03    1.2633428906e+05
    7.7198250219e-03    1.2608591406e+05
    7.7297496609e-03    1.2583892969e+05
    7.7399788424e-03    1.2558583594e+05
    7.7499039471e-03    1.2534153125e+05
    7.7598262578e-03    1.2509864844e+05
    7.7697527595e-03    1.2485700000e+05
    7.7799772844e-03    1.2460944531e+05
    7.7899093740e-03    1.2437027344e+05
    7.7998493798e-03    1.2413222656e+05
    7.8097893856e-03    1.2389564844e+05
    7.8197335824e-03    1.2366028906e+05
    7.8299762681e-03    1.2341918750e+05
    7.8399125487e-03    1.2318653906e+05
    7.8498572111e-03    1.2295496094e+05
    7.8598065302e-03    1.2272449219e+05
    7.8697530553e-03    1.2249539844e+05
    7.8797116876e-03    1.2226739844e+05
    7.8899748623e-03    1.2203374219e+05
    7.8999325633e-03    1.2180822656e+05
    7.9098939896e-03    1.2158378906e+05
    7.9198516905e-03    1.2136064844e+05
    7.9298187047e-03    1.2113858594e+05
    7.9397950321e-03    1.2091753906e+05
    7.9497722909e-03    1.2069772656e+05
    7.9597560689e-03    1.2047897656e+05
    7.9697445035e-03    1.2026128906e+05
    7.9797310755e-03    1.2004472656e+05
    7.9897148535e-03    1.1982937500e+05
    7.9996977001e-03    1.1961522656e+05
    8.0099813640e-03    1.1939578906e+05
    8.0199614167e-03    1.1918391406e+05
    8.0299396068e-03    1.1897321094e+05
    8.0399196595e-03    1.1876371094e+05
    8.0499015749e-03    1.1855544531e+05
    8.0598862842e-03    1.1834839844e+05
    8.0698709935e-03    1.1814250000e+05
    8.0798547715e-03    1.1793778906e+05
    8.0898385495e-03    1.1773434375e+05
    8.0998204648e-03    1.1753207031e+05
    8.1098023802e-03    1.1733065625e+05
    8.1197833642e-03    1.1712981250e+05
    8.1297615543e-03    1.1692956250e+05
    8.1397416070e-03    1.1673008594e+05
    8.1497207284e-03    1.1653161719e+05
    8.1597026438e-03    1.1633435156e+05
    8.1699863076e-03    1.1613275781e+05
    8.1799672917e-03    1.1593886719e+05
    8.1899473444e-03    1.1574671875e+05
    8.1999273971e-03    1.1555619531e+05
    8.2099093124e-03    1.1536705469e+05
    8.2198893651e-03    1.1517881250e+05
    8.2298731431e-03    1.1499063281e+05
    8.2398559898e-03    1.1480213281e+05
    8.2498416305e-03    1.1461322656e+05
    8.2598309964e-03    1.1442406250e+05
    8.2698166370e-03    1.1423515625e+05
    8.2798115909e-03    1.1404706250e+05
    8.2898074761e-03    1.1386075000e+05
    8.2998126745e-03    1.1367666406e+05
    8.3098169416e-03    1.1349542969e+05
    8.3198240027e-03    1.1331716406e+05
    8.3298329264e-03    1.1314171094e+05
    8.3398474380e-03    1.1296834375e+05
    8.3498749882e-03    1.1279583594e+05
    8.3599071950e-03    1.1262297656e+05
    8.3699543029e-03    1.1244852344e+05
    8.3797080442e-03    1.1227718750e+05
    8.3897737786e-03    1.1209850000e+05
    8.3998469636e-03    1.1191853125e+05
    8.4099220112e-03    1.1173838281e+05
    8.4197074175e-03    1.1156417969e+05
    8.4298048168e-03    1.1138594531e+05
    8.4399180487e-03    1.1120952344e+05
    8.4497360513e-03    1.1104078906e+05
    8.4598707035e-03    1.1086953125e+05
    8.4697119892e-03    1.1070602344e+05
    8.4798727185e-03    1.1053984375e+05
    8.4897391498e-03    1.1038078906e+05
    8.4999185055e-03    1.1021884375e+05
    8.5098007694e-03    1.1006322656e+05
    8.5199968889e-03    1.0990343750e+05
    8.5298931226e-03    1.0974828906e+05
    8.5397912189e-03    1.0959237500e+05
    8.5499994457e-03    1.0943035156e+05
    8.5598994046e-03    1.0927215625e+05
    8.5697993636e-03    1.0911353125e+05
    8.5797095671e-03    1.0895475000e+05
    8.5899271071e-03    1.0879119531e+05
    8.5999276489e-03    1.0863160156e+05
    8.6098238826e-03    1.0847452344e+05
    8.6199529469e-03    1.0831472656e+05
    8.6299926043e-03    1.0815722656e+05
    8.6399232969e-03    1.0800228906e+05
    8.6497226730e-03    1.0785034375e+05
    8.6597297341e-03    1.0769630469e+05
    8.6699407548e-03    1.0754031250e+05
    8.6799785495e-03    1.0738825781e+05
    8.6898198351e-03    1.0724056250e+05
    8.6998334154e-03    1.0709175781e+05
    8.7096216157e-03    1.0694771094e+05
    8.7199676782e-03    1.0679691406e+05
    8.7296674028e-03    1.0665675000e+05
    8.7399231270e-03    1.0650960156e+05
    8.7499143556e-03    1.0636707031e+05
    8.7596215308e-03    1.0622914844e+05
    8.7698856369e-03    1.0608360156e+05
    8.7798461318e-03    1.0594241406e+05
    8.7899267673e-03    1.0579953125e+05
    8.7996805087e-03    1.0566152344e+05
    8.8099911809e-03    1.0551615625e+05
    8.8199544698e-03    1.0537639844e+05
    8.8295498863e-03    1.0524241406e+05
    8.8396659121e-03    1.0510172656e+05
    8.8498247787e-03    1.0496122656e+05
    8.8595515117e-03    1.0482787500e+05
    8.8697876781e-03    1.0468833594e+05
    8.8796103373e-03    1.0455509375e+05
    8.8899713010e-03    1.0441544531e+05
    8.8999010623e-03    1.0428203125e+05
    8.9098820463e-03    1.0414841406e+05
    8.9199244976e-03    1.0401481250e+05
    8.9299958199e-03    1.0388128906e+05
    8.9396834373e-03    1.0375368750e+05
    8.9498674497e-03    1.0362028906e+05
    8.9596202597e-03    1.0349272656e+05
    8.9699318632e-03    1.0335921875e+05
    8.9797731489e-03    1.0323206250e+05
    8.9896414429e-03    1.0310514844e+05
    8.9996289462e-03    1.0297759375e+05
    9.0095773339e-03    1.0285075781e+05
    9.0196160600e-03    1.0272428906e+05
    9.0297684073e-03    1.0259658594e+05
    9.0398378670e-03    1.0247005469e+05
    9.0494677424e-03    1.0234989844e+05
    9.0596852824e-03    1.0222322656e+05
    9.0699093416e-03    1.0209655469e+05
    9.0796789154e-03    1.0197716406e+05
    9.0894829482e-03    1.0185744531e+05
    9.0998988599e-03    1.0173112500e+05
    9.1098556295e-03    1.0161124219e+05
    9.1197676957e-03    1.0149097656e+05
    9.1297011822e-03    1.0137180469e+05
    9.1396654025e-03    1.0125321875e+05
    9.1496529058e-03    1.0113456250e+05
    9.1597437859e-03    1.0101560156e+05
    9.1698402539e-03    1.0089621875e+05
    9.1799506918e-03    1.0077705469e+05
    9.1895665973e-03    1.0066408594e+05
    9.1997729614e-03    1.0054453906e+05
    9.2094130814e-03    1.0043190625e+05
    9.2196846381e-03    1.0031255469e+05
    9.2299673706e-03    1.0019382031e+05
    9.2396670952e-03    1.0008161719e+05
    9.2494506389e-03    9.9969507812e+04
    9.2597212642e-03    9.9851945312e+04
    9.2698922381e-03    9.9736312500e+04
    9.2798294500e-03    9.9624351562e+04
    9.2899324372e-03    9.9511554688e+04
    9.2995865270e-03    9.9404679688e+04
    9.3097127974e-03    9.9293750000e+04
    9.3197645620e-03    9.9184976562e+04
    9.3296971172e-03    9.9078648438e+04
    9.3398448080e-03    9.8970937500e+04
    9.3497307971e-03    9.8866789062e+04
    9.3599595129e-03    9.8759617188e+04
    9.3697169796e-03    9.8657585938e+04
    9.3797529116e-03    9.8552507812e+04
    9.3899574131e-03    9.8445351562e+04
    9.3998592347e-03    9.8340960938e+04
    9.4099408016e-03    9.8234179688e+04
    9.4199031591e-03    9.8128968750e+04
    9.4298366457e-03    9.8024070312e+04
    9.4398772344e-03    9.7918351562e+04
    9.4499867409e-03    9.7812476562e+04
    9.4598308206e-03    9.7710085938e+04
    9.4698583707e-03    9.7606687500e+04
    9.4798747450e-03    9.7504460938e+04
    9.4898827374e-03    9.7403257812e+04
    9.4998246059e-03    9.7303500000e+04
    9.5099937171e-03    9.7202023438e+04
    9.5198135823e-03    9.7104585938e+04
    9.5298290253e-03    9.7005843750e+04
    9.5398239791e-03    9.6907968750e+04
    9.5498459414e-03    9.6810539062e+04
    9.5598446205e-03    9.6714117188e+04
    9.5698097721e-03    9.6618687500e+04
    9.5799444243e-03    9.6522351562e+04
    9.5899961889e-03    9.6427539062e+04
    9.5999352634e-03    9.6334210938e+04
    9.6099777147e-03    9.6240054688e+04
    9.6198627725e-03    9.6147382812e+04
    9.6298260614e-03    9.6053835938e+04
    9.6398508176e-03    9.5959250000e+04
    9.6499305218e-03    9.5863554688e+04
    9.6598165110e-03    9.5769476562e+04
    9.6699902788e-03    9.5672835938e+04
    9.6799600869e-03    9.5578585938e+04
    9.6899699420e-03    9.5484835938e+04
    9.6997581422e-03    9.5394460938e+04
    9.7098331898e-03    9.5303007812e+04
    9.7199352458e-03    9.5212867188e+04
    9.7298109904e-03    9.5126210938e+04
    9.7399661317e-03    9.5038375000e+04
    9.7498875111e-03    9.4953382812e+04
    9.7598340362e-03    9.4868437500e+04
    9.7697973251e-03    9.4783062500e+04
    9.7797820345e-03    9.4696726562e+04
    9.7897872329e-03    9.4609164062e+04
    9.7998026758e-03    9.4520554688e+04
    9.8098460585e-03    9.4431085938e+04
    9.8198968917e-03    9.4341523438e+04
    9.8299616948e-03    9.4252414062e+04
    9.8397964612e-03    9.4166351562e+04
    9.8498854786e-03    9.4079414062e+04
    9.8597463220e-03    9.3995976562e+04
    9.8698744550e-03    9.3911945312e+04
    9.8799988627e-03    9.3829531250e+04
    9.8899034783e-03    9.3750039062e+04
    9.8998071626e-03    9.3671148438e+04
    9.9099799991e-03    9.3590093750e+04
    9.9199078977e-03    9.3510617188e+04
    9.9298553541e-03    9.3430406250e+04
    9.9398270249e-03    9.3349304688e+04
    9.9497819319e-03    9.3267398438e+04
    9.9597629160e-03    9.3184601562e+04
    9.9697746336e-03    9.3101476562e+04
    9.9797863513e-03    9.3018898438e+04
    9.9897906184e-03    9.2937414062e+04
    9.9998228252e-03    9.2857187500e+04
    1.0009887628e-02    9.2778460938e+04
    1.0019945912e-02    9.2701429688e+04
    1.0029739700e-02    9.2627867188e+04
    1.0039824992e-02    9.2553164062e+04
    1.0049932636e-02    9.2478695312e+04
    1.0059762746e-02    9.2405898438e+04
    1.0069874115e-02    9.2330101562e+04
    1.0079741478e-02    9.2254906250e+04
    1.0089890100e-02    9.2176281250e+04
    1.0099764913e-02    9.2098976562e+04
    1.0109921917e-02    9.2019429688e+04
    1.0119834915e-02    9.1942585938e+04
    1.0129757226e-02    9.1867273438e+04
    1.0139942169e-02    9.1792148438e+04
    1.0149870999e-02    9.1721085938e+04
    1.0159822181e-02    9.1651617188e+04
    1.0169779882e-02    9.1583062500e+04
    1.0179736651e-02    9.1514554688e+04
    1.0189972818e-02    9.1443273438e+04
    1.0199955665e-02    9.1372351562e+04
    1.0209945031e-02    9.1299851562e+04
    1.0219939984e-02    9.1226085938e+04
    1.0229945183e-02    9.1151835938e+04
    1.0239958763e-02    9.1078085938e+04
    1.0249976069e-02    9.1005710938e+04
    1.0259729810e-02    9.0937179688e+04
    1.0269765742e-02    9.0869023438e+04
    1.0279811919e-02    9.0802882812e+04
    1.0289856233e-02    9.0737875000e+04
    1.0299907066e-02    9.0672929688e+04
    1.0309969075e-02    9.0607148438e+04
    1.0319768451e-02    9.0541664062e+04
    1.0329841636e-02    9.0472648438e+04
    1.0339919478e-02    9.0402304688e+04
    1.0349728167e-02    9.0333460938e+04
    1.0359816253e-02    9.0263273438e+04
    1.0369908065e-02    9.0194648438e+04
    1.0379731655e-02    9.0130039062e+04
    1.0389834642e-02    9.0065851562e+04
    1.0399945080e-02    9.0003351562e+04
    1.0409786366e-02    8.9943414062e+04
    1.0419907048e-02    8.9881601562e+04
    1.0429756716e-02    8.9820289062e+04
    1.0439878330e-02    8.9755531250e+04
    1.0449998081e-02    8.9689156250e+04
    1.0459844954e-02    8.9623710938e+04
    1.0469971225e-02    8.9556664062e+04
    1.0479825549e-02    8.9492773438e+04
    1.0489956476e-02    8.9429210938e+04
    1.0499816388e-02    8.9369531250e+04
    1.0509952903e-02    8.9309992188e+04
    1.0519817472e-02    8.9253007812e+04
    1.0529956780e-02    8.9194375000e+04
    1.0539821349e-02    8.9136304688e+04
    1.0549961589e-02    8.9074882812e+04
    1.0559827089e-02    8.9013507812e+04
    1.0569967330e-02    8.8949656250e+04
    1.0579832830e-02    8.8887960938e+04
    1.0589973070e-02    8.8826007812e+04
    1.0599838570e-02    8.8767726562e+04
    1.0609979741e-02    8.8710062500e+04
    1.0619847104e-02    8.8655539062e+04
    1.0629989207e-02    8.8599945312e+04
    1.0639857501e-02    8.8545164062e+04
    1.0649726726e-02    8.8489187500e+04
    1.0659870692e-02    8.8430226562e+04
    1.0669741780e-02    8.8371820312e+04
    1.0679886676e-02    8.8311601562e+04
    1.0689759627e-02    8.8253835938e+04
    1.0699906386e-02    8.8196101562e+04
    1.0709779337e-02    8.8141914062e+04
    1.0719927028e-02    8.8087976562e+04
    1.0729800910e-02    8.8036257812e+04
    1.0739949532e-02    8.7982773438e+04
    1.0749823414e-02    8.7929757812e+04
    1.0759972036e-02    8.7874023438e+04
    1.0769846849e-02    8.7818843750e+04
    1.0779995471e-02    8.7761914062e+04
    1.0789871216e-02    8.7707148438e+04
    1.0799748823e-02    8.7653718750e+04
    1.0809904896e-02    8.7600593750e+04
    1.0819791816e-02    8.7550343750e+04
    1.0829959065e-02    8.7499289062e+04
    1.0839850642e-02    8.7449281250e+04
    1.0849741288e-02    8.7398437500e+04
    1.0859905742e-02    8.7345257812e+04
    1.0869793594e-02    8.7293000000e+04
    1.0879956186e-02    8.7239382812e+04
    1.0889844038e-02    8.7187890625e+04
    1.0899734683e-02    8.7137484375e+04
    1.0909903795e-02    8.7087000000e+04
    1.0919799097e-02    8.7038898438e+04
    1.0929969139e-02    8.6989882812e+04
    1.0939863510e-02    8.6941960938e+04
    1.0949758813e-02    8.6893406250e+04
    1.0959928855e-02    8.6842750000e+04
    1.0969824158e-02    8.6793085938e+04
    1.0979994200e-02    8.6742343750e+04
    1.0989888571e-02    8.6693796875e+04
    1.0999783874e-02    8.6646218750e+04
    1.1009954847e-02    8.6598351562e+04
    1.1019851081e-02    8.6552531250e+04
    1.1029747315e-02    8.6506781250e+04
    1.1039918289e-02    8.6459226562e+04
    1.1049813591e-02    8.6412484375e+04
    1.1059984565e-02    8.6364234375e+04
    1.1069880798e-02    8.6317429688e+04
    1.1079777032e-02    8.6271226562e+04
    1.1089948937e-02    8.6224687500e+04
    1.1099846102e-02    8.6180179688e+04
    1.1109742336e-02    8.6136117188e+04
    1.1119913310e-02    8.6090984375e+04
    1.1129810475e-02    8.6046992188e+04
    1.1139982380e-02    8.6001585938e+04
    1.1149880476e-02    8.5957320312e+04
    1.1159777641e-02    8.5913179688e+04
    1.1169949546e-02    8.5868148438e+04
    1.1179846711e-02    8.5824773438e+04
    1.1189743876e-02    8.5781984375e+04
    1.1199916713e-02    8.5738695312e+04
    1.1209814809e-02    8.5696937500e+04
    1.1219987646e-02    8.5653820312e+04
    1.1229885742e-02    8.5611484375e+04
    1.1239783838e-02    8.5569132812e+04
    1.1249956675e-02    8.5526046875e+04
    1.1259855703e-02    8.5484570312e+04
    1.1269753799e-02    8.5443437500e+04
    1.1279927567e-02    8.5401554688e+04
    1.1289825663e-02    8.5361140625e+04
    1.1299999431e-02    8.5319734375e+04
    1.1309898458e-02    8.5279539062e+04
    1.1319796555e-02    8.5239500000e+04
    1.1329970323e-02    8.5198398438e+04
    1.1339869350e-02    8.5158484375e+04
    1.1349769309e-02    8.5118914062e+04
    1.1359944008e-02    8.5078710938e+04
    1.1369843036e-02    8.5039875000e+04
    1.1379742995e-02    8.5001320312e+04
    1.1389916763e-02    8.4961968750e+04
    1.1399816722e-02    8.4923718750e+04
    1.1409991421e-02    8.4884390625e+04
    1.1419892311e-02    8.4846343750e+04
    1.1429793201e-02    8.4808648438e+04
    1.1439968832e-02    8.4770234375e+04
    1.1449868791e-02    8.4733140625e+04
    1.1459769681e-02    8.4696281250e+04
    1.1469945312e-02    8.4658585938e+04
    1.1479846202e-02    8.4622093750e+04
    1.1489748023e-02    8.4585765625e+04
    1.1499923654e-02    8.4548562500e+04
    1.1509825476e-02    8.4512546875e+04
    1.1519727297e-02    8.4476773438e+04
    1.1529903859e-02    8.4440273438e+04
    1.1539806612e-02    8.4405031250e+04
    1.1549984105e-02    8.4369000000e+04
    1.1559887789e-02    8.4333992188e+04
    1.1569790542e-02    8.4299054688e+04
    1.1579968035e-02    8.4263468750e+04
    1.1589870788e-02    8.4229226562e+04
    1.1599773541e-02    8.4195132812e+04
    1.1609951966e-02    8.4160132812e+04
    1.1619855650e-02    8.4126289062e+04
    1.1629759334e-02    8.4092742188e+04
    1.1639938690e-02    8.4058531250e+04
    1.1649843305e-02    8.4025484375e+04
    1.1659747921e-02    8.3992593750e+04
    1.1669928208e-02    8.3958843750e+04
    1.1679832824e-02    8.3926273438e+04
    1.1689738370e-02    8.3894085938e+04
    1.1699918658e-02    8.3861171875e+04
    1.1709824204e-02    8.3829195312e+04
    1.1719729751e-02    8.3797460938e+04
    1.1729910970e-02    8.3765117188e+04
    1.1739816517e-02    8.3733765625e+04
    1.1749997735e-02    8.3701695312e+04
    1.1759904213e-02    8.3670703125e+04
    1.1769810691e-02    8.3639882812e+04
    1.1779992841e-02    8.3608421875e+04
    1.1789901182e-02    8.3578046875e+04
    1.1799808592e-02    8.3547820312e+04
    1.1809991673e-02    8.3516875000e+04
    1.1819900014e-02    8.3486921875e+04
    1.1829807423e-02    8.3457218750e+04
    1.1839990504e-02    8.3427000000e+04
    1.1849898845e-02    8.3397851562e+04
    1.1859808117e-02    8.3368843750e+04
    1.1869992130e-02    8.3339140625e+04
    1.1879901402e-02    8.3310421875e+04
    1.1889810674e-02    8.3281890625e+04
    1.1899995618e-02    8.3252742188e+04
    1.1909905821e-02    8.3224609375e+04
    1.1919816025e-02    8.3196726562e+04
    1.1929726228e-02    8.3169023438e+04
    1.1939911172e-02    8.3140632812e+04
    1.1949822307e-02    8.3113109375e+04
    1.1959733441e-02    8.3085796875e+04
    1.1969919316e-02    8.3057984375e+04
    1.1979831383e-02    8.3031187500e+04
    1.1989743449e-02    8.3004531250e+04
    1.1999930255e-02    8.2977203125e+04
    1.2009842321e-02    8.2950812500e+04
    1.2019754387e-02    8.2924757812e+04
    1.2029942125e-02    8.2898125000e+04
    1.2039855123e-02    8.2872257812e+04
    1.2049768120e-02    8.2846640625e+04
    1.2059956789e-02    8.2820585938e+04
    1.2069870718e-02    8.2795320312e+04
    1.2079783715e-02    8.2770187500e+04
    1.2089973316e-02    8.2744625000e+04
    1.2099888176e-02    8.2719929688e+04
    1.2109802105e-02    8.2695375000e+04
    1.2119992636e-02    8.2670359375e+04
    1.2129906565e-02    8.2646203125e+04
    1.2139821425e-02    8.2622179688e+04
    1.2149737217e-02    8.2598281250e+04
    1.2159927748e-02    8.2573890625e+04
    1.2169843540e-02    8.2550414062e+04
    1.2179759331e-02    8.2527179688e+04
    1.2189950794e-02    8.2503421875e+04
    1.2199867517e-02    8.2480367188e+04
    1.2209783308e-02    8.2457460938e+04
    1.2219975702e-02    8.2434195312e+04
    1.2229892425e-02    8.2411812500e+04
    1.2239810079e-02    8.2389585938e+04
    1.2249727733e-02    8.2367445312e+04
    1.2259920128e-02    8.2344796875e+04
    1.2269837782e-02    8.2322984375e+04
    1.2279755436e-02    8.2301460938e+04
    1.2289948761e-02    8.2279492188e+04
    1.2299867347e-02    8.2258125000e+04
    1.2309785932e-02    8.2236968750e+04
    1.2319980189e-02    8.2215570312e+04
    1.2329898775e-02    8.2194867188e+04
    1.2339818291e-02    8.2174171875e+04
    1.2349736877e-02    8.2153718750e+04
    1.2359932065e-02    8.2132992188e+04
    1.2369852513e-02    8.2112898438e+04
    1.2379772030e-02    8.2092921875e+04
    1.2389967218e-02    8.2072656250e+04
    1.2399887666e-02    8.2053070312e+04
    1.2409807183e-02    8.2033593750e+04
    1.2419727631e-02    8.2014320312e+04
    1.2429924682e-02    8.1994703125e+04
    1.2439845130e-02    8.1975750000e+04
    1.2449766509e-02    8.1957000000e+04
    1.2459963560e-02    8.1937914062e+04
    1.2469884939e-02    8.1919468750e+04
    1.2479806319e-02    8.1901171875e+04
    1.2489727698e-02    8.1883070312e+04
    1.2499924749e-02    8.1864687500e+04
    1.2509847060e-02    8.1846960938e+04
    1.2519769371e-02    8.1829312500e+04
    1.2529967353e-02    8.1811289062e+04
    1.2539890595e-02    8.1793984375e+04
    1.2549812905e-02    8.1776945312e+04
    1.2559736148e-02    8.1760062500e+04
    1.2569934130e-02    8.1742781250e+04
    1.2579857372e-02    8.1726078125e+04
    1.2589780614e-02    8.1709539062e+04
    1.2599979527e-02    8.1692742188e+04
    1.2609903701e-02    8.1676671875e+04
    1.2619827874e-02    8.1660789062e+04
    1.2629752047e-02    8.1644914062e+04
    1.2639950961e-02    8.1628679688e+04
    1.2649875134e-02    8.1613195312e+04
    1.2659800239e-02    8.1597929688e+04
    1.2669724412e-02    8.1582718750e+04
    1.2679925188e-02    8.1567250000e+04
    1.2689849362e-02    8.1552398438e+04
    1.2699774466e-02    8.1537632812e+04
    1.2709975243e-02    8.1522640625e+04
    1.2719900347e-02    8.1508312500e+04
    1.2729826383e-02    8.1494078125e+04
    1.2739751488e-02    8.1479945312e+04
    1.2749953195e-02    8.1465679688e+04
    1.2759878300e-02    8.1451976562e+04
    1.2769804336e-02    8.1438359375e+04
    1.2779730372e-02    8.1424906250e+04
    1.2789932080e-02    8.1411273438e+04
    1.2799859047e-02    8.1398203125e+04
    1.2809785083e-02    8.1385359375e+04
    1.2819987722e-02    8.1372382812e+04
    1.2829913758e-02    8.1359875000e+04
    1.2839840725e-02    8.1347437500e+04
    1.2849767692e-02    8.1335093750e+04
    1.2859970331e-02    8.1322570312e+04
    1.2869897299e-02    8.1310601562e+04
    1.2879824266e-02    8.1298812500e+04
    1.2889752164e-02    8.1287164062e+04
    1.2899954803e-02    8.1275351562e+04
    1.2909882702e-02    8.1264000000e+04
    1.2919810601e-02    8.1252734375e+04
    1.2929738499e-02    8.1241609375e+04
    1.2939942069e-02    8.1230453125e+04
    1.2949869968e-02    8.1219820312e+04
    1.2959797867e-02    8.1209242188e+04
    1.2969725765e-02    8.1198757812e+04
    1.2979929335e-02    8.1188250000e+04
    1.2989857234e-02    8.1178218750e+04
    1.2999786064e-02    8.1168257812e+04
    1.3009989634e-02    8.1158203125e+04
    1.3019918464e-02    8.1148617188e+04
    1.3029847294e-02    8.1139101562e+04
    1.3039775193e-02    8.1129710938e+04
    1.3049979694e-02    8.1120335938e+04
    1.3059908524e-02    8.1111375000e+04
    1.3069837354e-02    8.1102523438e+04
    1.3079766184e-02    8.1093835938e+04
    1.3089970686e-02    8.1084992188e+04
    1.3099899516e-02    8.1076437500e+04
    1.3109828345e-02    8.1068117188e+04
    1.3119757175e-02    8.1060109375e+04
    1.3129961677e-02    8.1052070312e+04
    1.3139890507e-02    8.1044335938e+04
    1.3149819337e-02    8.1036679688e+04
    1.3159749098e-02    8.1029195312e+04
    1.3169953600e-02    8.1021710938e+04
    1.3179882430e-02    8.1014562500e+04
    1.3189812191e-02    8.1007562500e+04
    1.3199741021e-02    8.1000812500e+04
    1.3209945522e-02    8.0994101562e+04
    1.3219875284e-02    8.0987593750e+04
    1.3229804114e-02    8.0981132812e+04
    1.3239732943e-02    8.0974906250e+04
    1.3249938376e-02    8.0968765625e+04
    1.3259867206e-02    8.0962906250e+04
    1.3269796036e-02    8.0957117188e+04
    1.3279724866e-02    8.0951500000e+04
    1.3289930299e-02    8.0945898438e+04
    1.3299859129e-02    8.0940617188e+04
    1.3309787959e-02    8.0935562500e+04
    1.3319993392e-02    8.0930523438e+04
    1.3329922222e-02    8.0925656250e+04
    1.3339851052e-02    8.0920968750e+04
    1.3349779882e-02    8.0916585938e+04
    1.3359985314e-02    8.0912203125e+04
    1.3369914144e-02    8.0907992188e+04
    1.3379842974e-02    8.0903984375e+04
    1.3389771804e-02    8.0900125000e+04
    1.3399976306e-02    8.0896250000e+04
    1.3409905136e-02    8.0892750000e+04
    1.3419833966e-02    8.0889531250e+04
    1.3429763727e-02    8.0886398438e+04
    1.3439968228e-02    8.0883218750e+04
    1.3449897058e-02    8.0880304688e+04
    1.3459825888e-02    8.0877648438e+04
    1.3469754718e-02    8.0875203125e+04
    1.3479959220e-02    8.0872773438e+04
    1.3489888050e-02    8.0870484375e+04
    1.3499816880e-02    8.0868312500e+04
    1.3509744778e-02    8.0866320312e+04
    1.3519949280e-02    8.0864539062e+04
    1.3529878110e-02    8.0863054688e+04
    1.3539806940e-02    8.0861679688e+04
    1.3549735770e-02    8.0860328125e+04
    1.3559940271e-02    8.0859156250e+04
    1.3569868170e-02    8.0858351562e+04
    1.3579797000e-02    8.0857718750e+04
    1.3589725830e-02    8.0857085938e+04
    1.3599929400e-02    8.0856562500e+04
    1.3609858230e-02    8.0856351562e+04
    1.3619787060e-02    8.0856320312e+04
    1.3629992492e-02    8.0856375000e+04
    1.3639921322e-02    8.0856617188e+04
    1.3649850152e-02    8.0857085938e+04
    1.3659779914e-02    8.0857640625e+04
    1.3669985346e-02    8.0858390625e+04
    1.3679915108e-02    8.0859429688e+04
    1.3689845800e-02    8.0860617188e+04
    1.3699776493e-02    8.0861859375e+04
    1.3709983788e-02    8.0863414062e+04
    1.3719914481e-02    8.0865195312e+04
    1.3729846105e-02    8.0867101562e+04
    1.3739777729e-02    8.0869132812e+04
    1.3749985956e-02    8.0871367188e+04
    1.3759918511e-02    8.0873664062e+04
    1.3769851066e-02    8.0876171875e+04
    1.3779784553e-02    8.0878929688e+04
    1.3789993711e-02    8.0881906250e+04
    1.3799928129e-02    8.0884921875e+04
    1.3809862547e-02    8.0888156250e+04
    1.3819797896e-02    8.0891617188e+04
    1.3829733245e-02    8.0895242188e+04
    1.3839944266e-02    8.0899109375e+04
    1.3849880546e-02    8.0903046875e+04
    1.3859817758e-02    8.0907195312e+04
    1.3869754970e-02    8.0911507812e+04
    1.3879966922e-02    8.0916039062e+04
    1.3889905065e-02    8.0920601562e+04
    1.3899843208e-02    8.0925476562e+04
    1.3909782283e-02    8.0930609375e+04
    1.3919997960e-02    8.0935953125e+04
    1.3929937966e-02    8.0941218750e+04
    1.3939879835e-02    8.0946750000e+04
    1.3949820772e-02    8.0952585938e+04
    1.3959762640e-02    8.0958570312e+04
    1.3969982974e-02    8.0964843750e+04
    1.3979927637e-02    8.0971125000e+04
    1.3989871368e-02    8.0977625000e+04
    1.3999815099e-02    8.0984390625e+04
    1.4009760693e-02    8.0991445312e+04
    1.4019982889e-02    8.0998812500e+04
    1.4029929414e-02    8.1006054688e+04
    1.4039875008e-02    8.1013539062e+04
    1.4049821533e-02    8.1021242188e+04
    1.4059769921e-02    8.1029046875e+04
    1.4069996774e-02    8.1037265625e+04
    1.4079947956e-02    8.1045617188e+04
    1.4089901000e-02    8.1054226562e+04
    1.4099854045e-02    8.1062984375e+04
    1.4109806158e-02    8.1071867188e+04
    1.4119760133e-02    8.1080867188e+04
    1.4129993506e-02    8.1090343750e+04
    1.4139951207e-02    8.1099890625e+04
    1.4149907976e-02    8.1109718750e+04
    1.4159863815e-02    8.1119687500e+04
    1.4169821516e-02    8.1129796875e+04
    1.4179782011e-02    8.1140132812e+04
    1.4189744368e-02    8.1150750000e+04
    1.4199983329e-02    8.1161898438e+04
    1.4209944755e-02    8.1172859375e+04
    1.4219908044e-02    8.1184000000e+04
    1.4229873195e-02    8.1195414062e+04
    1.4239843003e-02    8.1207085938e+04
    1.4249813743e-02    8.1218890625e+04
    1.4259783551e-02    8.1230835938e+04
    1.4269754291e-02    8.1243070312e+04
    1.4279726893e-02    8.1255578125e+04
    1.4289981686e-02    8.1268617188e+04
    1.4299960807e-02    8.1281609375e+04
    1.4309938066e-02    8.1300492188e+04
    1.4319914393e-02    8.1600718750e+04
    1.4329893515e-02    8.9658507812e+04
    1.4339878224e-02    1.0329781250e+05
    1.4349864796e-02    1.0228455469e+05
    1.4359850436e-02    1.0198271875e+05
    1.4369835146e-02    1.0211736719e+05
    1.4379822649e-02    1.0212010156e+05
    1.4389813878e-02    1.0204674219e+05
    1.4399810694e-02    1.0198378125e+05
    1.4409808442e-02    1.0194085156e+05
    1.4419804327e-02    1.0190277344e+05
    1.4429800212e-02    1.0185275781e+05
    1.4439798892e-02    1.0179917969e+05
    1.4449804090e-02    1.0175221094e+05
    1.4459812082e-02    1.0170803906e+05
    1.4469819143e-02    1.0166096094e+05
    1.4479825273e-02    1.0161234375e+05
    1.4489834197e-02    1.0156540625e+05
    1.4499849640e-02    1.0151972656e+05
    1.4509869739e-02    1.0147327344e+05
    1.4519888908e-02    1.0142675000e+05
    1.4529906213e-02    1.0138107031e+05
    1.4539925382e-02    1.0133491406e+05
    1.4549951069e-02    1.0128877344e+05
    1.4559981413e-02    1.0124528125e+05
    1.4569735155e-02    1.0119944531e+05
    1.4579766430e-02    1.0115496875e+05
    1.4589796774e-02    1.0111060156e+05
    1.4599831775e-02    1.0106638281e+05
    1.4609872364e-02    1.0102278906e+05
    1.4619917609e-02    1.0097785156e+05
    1.4629961923e-02    1.0093511719e+05
    1.4639724977e-02    1.0089167969e+05
    1.4649769291e-02    1.0084790625e+05
    1.4659820125e-02    1.0080400781e+05
    1.4669877477e-02    1.0076056250e+05
    1.4679933898e-02    1.0071775000e+05
    1.4689993113e-02    1.0067502344e+05
    1.4699773863e-02    1.0063336719e+05
    1.4709836803e-02    1.0059050000e+05
    1.4719901606e-02    1.0054778906e+05
    1.4729969203e-02    1.0050550000e+05
    1.4739760198e-02    1.0046456250e+05
    1.4749830589e-02    1.0042237500e+05
    1.4759902842e-02    1.0038016406e+05
    1.4769980684e-02    1.0033828906e+05
    1.4779783785e-02    1.0029788281e+05
    1.4789866284e-02    1.0025641406e+05
    1.4799947850e-02    1.0021507031e+05
    1.4809753746e-02    1.0017505469e+05
    1.4819846489e-02    1.0013411719e+05
    1.4829943888e-02    1.0009327344e+05
    1.4839760028e-02    1.0005366406e+05
    1.4849859290e-02    1.0001310156e+05
    1.4859960414e-02    9.9972742188e+04
    1.4869781211e-02    9.9933601562e+04
    1.4879886061e-02    9.9893429688e+04
    1.4889995568e-02    9.9853398438e+04
    1.4899827540e-02    9.9814593750e+04
    1.4909940772e-02    9.9774726562e+04
    1.4919773676e-02    9.9736023438e+04
    1.4929890633e-02    9.9696929688e+04
    1.4939731918e-02    9.9658523438e+04
    1.4949857257e-02    9.9618882812e+04
    1.4959981665e-02    9.9580437500e+04
    1.4969828539e-02    9.9542742188e+04
    1.4979962260e-02    9.9503414062e+04
    1.4989814721e-02    9.9465726562e+04
    1.4999951236e-02    9.9427398438e+04
    1.5009808354e-02    9.9390429688e+04
    1.5019951388e-02    9.9351226562e+04
    1.5029814094e-02    9.9314382812e+04
    1.5039960854e-02    9.9276460938e+04
    1.5049830079e-02    9.9238898438e+04
    1.5059985220e-02    9.9201500000e+04
    1.5069856308e-02    9.9164351562e+04
    1.5079728328e-02    9.9128085938e+04
    1.5089888126e-02    9.9090312500e+04
    1.5099770389e-02    9.9053968750e+04
    1.5109936707e-02    9.9016757812e+04
    1.5119822696e-02    9.8980445312e+04
    1.5129992738e-02    9.8943320312e+04
    1.5139883384e-02    9.8907257812e+04
    1.5149774961e-02    9.8871195312e+04
    1.5159951523e-02    9.8834226562e+04
    1.5169850551e-02    9.8798468750e+04
    1.5179755166e-02    9.8762960938e+04
    1.5189941041e-02    9.8726726562e+04
    1.5199847519e-02    9.8691664062e+04
    1.5209757723e-02    9.8656500000e+04
    1.5219954774e-02    9.8619976562e+04
    1.5229869634e-02    9.8584117188e+04
    1.5239786357e-02    9.8548226562e+04
    1.5249990858e-02    9.8511781250e+04
    1.5259917825e-02    9.8477164062e+04
    1.5269843861e-02    9.8443476562e+04
    1.5279771760e-02    9.8410429688e+04
    1.5289986506e-02    9.8376710938e+04
    1.5299921855e-02    9.8343398438e+04
    1.5309858136e-02    9.8308085938e+04
    1.5319797210e-02    9.8271789062e+04
    1.5329742804e-02    9.8234960938e+04
    1.5339975245e-02    9.8196617188e+04
    1.5349922702e-02    9.8160679688e+04
    1.5359873883e-02    9.8127023438e+04
    1.5369827859e-02    9.8095773438e+04
    1.5379788354e-02    9.8064804688e+04
    1.5389747918e-02    9.8034132812e+04
    1.5399995260e-02    9.8003414062e+04
    1.5409961343e-02    9.7971507812e+04
    1.5419929288e-02    9.7938289062e+04
    1.5429897234e-02    9.7904101562e+04
    1.5439866111e-02    9.7870039062e+04
    1.5449840575e-02    9.7834164062e+04
    1.5459815972e-02    9.7799000000e+04
    1.5469793230e-02    9.7764304688e+04
    1.5479768626e-02    9.7730500000e+04
    1.5489748679e-02    9.7697304688e+04
    1.5499732457e-02    9.7664789062e+04
    1.5509997495e-02    9.7632023438e+04
    1.5519980341e-02    9.7600195312e+04
    1.5529969707e-02    9.7568937500e+04
    1.5539962798e-02    9.7537523438e+04
    1.5549953096e-02    9.7505898438e+04
    1.5559939668e-02    9.7474125000e+04
    1.5569924377e-02    9.7441937500e+04
    1.5579902567e-02    9.7409906250e+04
    1.5589874238e-02    9.7377726562e+04
    1.5599839389e-02    9.7346023438e+04
    1.5609798953e-02    9.7314460938e+04
    1.5619753860e-02    9.7282960938e+04
    1.5629986301e-02    9.7250867188e+04
    1.5639994293e-02    9.7219507812e+04
    1.5649896115e-02    9.7188398438e+04
    1.5659973025e-02    9.7156835938e+04
    1.5669923276e-02    9.7125851562e+04
    1.5679728240e-02    9.7095492188e+04
    1.5689687803e-02    9.7064742188e+04
    1.5699800104e-02    9.7033585938e+04
    1.5709741041e-02    9.7003062500e+04
    1.5719827265e-02    9.6972210938e+04
    1.5729723498e-02    9.6942125000e+04
    1.5739753842e-02    9.6911570312e+04
    1.5749912709e-02    9.6880156250e+04
    1.5759862959e-02    9.6849945312e+04
    1.5769932419e-02    9.6819531250e+04
    1.5779761598e-02    9.6788648438e+04
    1.5789711848e-02    9.6757851562e+04
    1.5799766406e-02    9.6727101562e+04
    1.5809919685e-02    9.6696523438e+04
    1.5819806606e-02    9.6665867188e+04
    1.5829777345e-02    9.6636554688e+04
    1.5839828178e-02    9.6607085938e+04
    1.5849927440e-02    9.6578039062e+04
    1.5859901905e-02    9.6548625000e+04
    1.5869760886e-02    9.6520460938e+04
    1.5879735351e-02    9.6491750000e+04
    1.5889976174e-02    9.6461539062e+04
    1.5899972990e-02    9.6432101562e+04
    1.5909997746e-02    9.6402539062e+04
    1.5919765458e-02    9.6372789062e+04
    1.5929816291e-02    9.6342882812e+04
    1.5939878300e-02    9.6311937500e+04
    1.5949945897e-02    9.6282226562e+04
    1.5959743410e-02    9.6253070312e+04
    1.5969818458e-02    9.6224742188e+04
    1.5979895368e-02    9.6195937500e+04
    1.5989974141e-02    9.6168000000e+04
    1.5999784693e-02    9.6140492188e+04
    1.6009869054e-02    9.6111914062e+04
    1.6019957140e-02    9.6083062500e+04
    1.6029771417e-02    9.6054351562e+04
    1.6039861366e-02    9.6024664062e+04
    1.6049951315e-02    9.5995023438e+04
    1.6059769318e-02    9.5966679688e+04
    1.6069859266e-02    9.5938062500e+04
    1.6079951078e-02    9.5909726562e+04
    1.6089767218e-02    9.5882617188e+04
    1.6099857166e-02    9.5855023438e+04
    1.6109948978e-02    9.5826960938e+04
    1.6119765118e-02    9.5798898438e+04
    1.6129855067e-02    9.5769757812e+04
    1.6139945015e-02    9.5740625000e+04
    1.6149761155e-02    9.5712125000e+04
    1.6159851104e-02    9.5683945312e+04
    1.6169939190e-02    9.5657335938e+04
    1.6179757193e-02    9.5630593750e+04
    1.6189845279e-02    9.5602945312e+04
    1.6199933365e-02    9.5575304688e+04
    1.6209749505e-02    9.5547585938e+04
    1.6219837591e-02    9.5518367188e+04
    1.6229925677e-02    9.5490054688e+04
    1.6239739954e-02    9.5463593750e+04
    1.6249828041e-02    9.5436148438e+04
    1.6259914264e-02    9.5409382812e+04
    1.6269728541e-02    9.5383000000e+04
    1.6279816628e-02    9.5355523438e+04
    1.6289902851e-02    9.5327195312e+04
    1.6299989074e-02    9.5298968750e+04
    1.6309801489e-02    9.5272289062e+04
    1.6319887713e-02    9.5244898438e+04
    1.6329972073e-02    9.5218445312e+04
    1.6339784488e-02    9.5192601562e+04
    1.6349868849e-02    9.5165335938e+04
    1.6359953210e-02    9.5138023438e+04
    1.6369765624e-02    9.5110835938e+04
    1.6379849985e-02    9.5083656250e+04
    1.6389932483e-02    9.5057054688e+04
    1.6399744898e-02    9.5031148438e+04
    1.6409827396e-02    9.5005117188e+04
    1.6419909894e-02    9.4978054688e+04
    1.6429992393e-02    9.4951085938e+04
    1.6439802945e-02    9.4924523438e+04
    1.6449883580e-02    9.4897585938e+04
    1.6459966078e-02    9.4871257812e+04
    1.6469774768e-02    9.4845781250e+04
    1.6479855403e-02    9.4819625000e+04
    1.6489936039e-02    9.4793164062e+04
    1.6499744728e-02    9.4767210938e+04
    1.6509825364e-02    9.4740476562e+04
    1.6519905999e-02    9.4714039062e+04
    1.6529986635e-02    9.4688195312e+04
    1.6539795324e-02    9.4662976562e+04
    1.6549874097e-02    9.4636476562e+04
    1.6559956595e-02    9.4610437500e+04
    1.6569767147e-02    9.4585445312e+04
    1.6579855233e-02    9.4558804688e+04
    1.6589945182e-02    9.4532937500e+04
    1.6599765047e-02    9.4508406250e+04
    1.6609858721e-02    9.4482398438e+04
    1.6619952396e-02    9.4456148438e+04
    1.6629774123e-02    9.4431117188e+04
    1.6639875248e-02    9.4406000000e+04
    1.6649987549e-02    9.4380000000e+04
    1.6659837216e-02    9.4355398438e+04
    1.6669968143e-02    9.4329789062e+04
    1.6679828987e-02    9.4305554688e+04
    1.6689965501e-02    9.4279125000e+04
    1.6699837521e-02    9.4254882812e+04
    1.6709996387e-02    9.4228632812e+04
    1.6719896346e-02    9.4203507812e+04
    1.6729814932e-02    9.4178312500e+04
    1.6739746556e-02    9.4153000000e+04
    1.6749963164e-02    9.4127273438e+04
    1.6759915277e-02    9.4102585938e+04
    1.6769871116e-02    9.4077937500e+04
    1.6779836267e-02    9.4054039062e+04
    1.6789816320e-02    9.4029593750e+04
    1.6799811274e-02    9.4006039062e+04
    1.6809813678e-02    9.3981460938e+04
    1.6819823533e-02    9.3957289062e+04
    1.6829846427e-02    9.3932773438e+04
    1.6839876771e-02    9.3908007812e+04
    1.6849914566e-02    9.3883750000e+04
    1.6859952360e-02    9.3858726562e+04
    1.6869995743e-02    9.3834039062e+04
    1.6879769042e-02    9.3810273438e+04
    1.6889831051e-02    9.3785992188e+04
    1.6899900511e-02    9.3761726562e+04
    1.6909975559e-02    9.3737320312e+04
    1.6919778660e-02    9.3714023438e+04
    1.6929864883e-02    9.3690289062e+04
    1.6939952970e-02    9.3666218750e+04
    1.6949761659e-02    9.3642898438e+04
    1.6959851608e-02    9.3619664062e+04
    1.6969947144e-02    9.3596195312e+04
    1.6979763284e-02    9.3572843750e+04
    1.6989862546e-02    9.3549898438e+04
    1.6999965534e-02    9.3526789062e+04
    1.7009785399e-02    9.3503539062e+04
    1.7019886523e-02    9.3479882812e+04
    1.7029987648e-02    9.3456562500e+04
    1.7039807513e-02    9.3433625000e+04
    1.7049908638e-02    9.3409429688e+04
    1.7059730366e-02    9.3386687500e+04
    1.7069835216e-02    9.3362960938e+04
    1.7079940066e-02    9.3339679688e+04
    1.7089765519e-02    9.3316601562e+04
    1.7099872231e-02    9.3294226562e+04
    1.7109978944e-02    9.3270960938e+04
    1.7119806260e-02    9.3249679688e+04
    1.7129916698e-02    9.3226625000e+04
    1.7139745876e-02    9.3205023438e+04
    1.7149858177e-02    9.3182500000e+04
    1.7159972340e-02    9.3160039062e+04
    1.7169805244e-02    9.3137945312e+04
    1.7179921269e-02    9.3115179688e+04
    1.7189757898e-02    9.3093101562e+04
    1.7199875787e-02    9.3070601562e+04
    1.7209995538e-02    9.3047843750e+04
    1.7219835892e-02    9.3026304688e+04
    1.7229957506e-02    9.3004031250e+04
    1.7239799723e-02    9.2982867188e+04
    1.7249925062e-02    9.2961062500e+04
    1.7259769142e-02    9.2939695312e+04
    1.7269894481e-02    9.2917929688e+04
    1.7279742286e-02    9.2896664062e+04
    1.7289869487e-02    9.2874851562e+04
    1.7300000414e-02    9.2852968750e+04
    1.7309848219e-02    9.2831710938e+04
    1.7319981009e-02    9.2810242188e+04
    1.7329830676e-02    9.2789406250e+04
    1.7339963466e-02    9.2767773438e+04
    1.7349814996e-02    9.2747195312e+04
    1.7359949648e-02    9.2726226562e+04
    1.7369803041e-02    9.2705117188e+04
    1.7379939556e-02    9.2683726562e+04
    1.7389792949e-02    9.2664062500e+04
    1.7399929464e-02    9.2642812500e+04
    1.7409784719e-02    9.2621851562e+04
    1.7419921234e-02    9.2601273438e+04
    1.7429778352e-02    9.2581570312e+04
    1.7439916730e-02    9.2560335938e+04
    1.7449771985e-02    9.2540210938e+04
    1.7459910363e-02    9.2520031250e+04
    1.7469767481e-02    9.2499843750e+04
    1.7479907721e-02    9.2479632812e+04
    1.7489764839e-02    9.2459460938e+04
    1.7499905080e-02    9.2439632812e+04
    1.7509762198e-02    9.2419476562e+04
    1.7519902438e-02    9.2399976562e+04
    1.7529761419e-02    9.2379914062e+04
    1.7539901659e-02    9.2360414062e+04
    1.7549758777e-02    9.2340570312e+04
    1.7559900880e-02    9.2321085938e+04
    1.7569759861e-02    9.2301781250e+04
    1.7579900101e-02    9.2282257812e+04
    1.7589759082e-02    9.2262906250e+04
    1.7599899322e-02    9.2243492188e+04
    1.7609758303e-02    9.2224468750e+04
    1.7619900405e-02    9.2205351562e+04
    1.7629759386e-02    9.2186437500e+04
    1.7639899626e-02    9.2167257812e+04
    1.7649758607e-02    9.2148468750e+04
    1.7659900710e-02    9.2129375000e+04
    1.7669761553e-02    9.2111062500e+04
    1.7679901794e-02    9.2092210938e+04
    1.7689762637e-02    9.2073960938e+04
    1.7699904740e-02    9.2055023438e+04
    1.7709765583e-02    9.2036914062e+04
    1.7719907686e-02    9.2018593750e+04
    1.7729768530e-02    9.2000414062e+04
    1.7739910632e-02    9.1981835938e+04
    1.7749771476e-02    9.1964289062e+04
    1.7759913579e-02    9.1945789062e+04
    1.7769774422e-02    9.1927757812e+04
    1.7779916525e-02    9.1909945312e+04
    1.7789779231e-02    9.1892679688e+04
    1.7799921334e-02    9.1874375000e+04
    1.7809784040e-02    9.1856570312e+04
    1.7819928005e-02    9.1839343750e+04
    1.7829790711e-02    9.1821898438e+04
    1.7839934677e-02    9.1804101562e+04
    1.7849795520e-02    9.1787210938e+04
    1.7859941348e-02    9.1769757812e+04
    1.7869804054e-02    9.1752398438e+04
    1.7879948020e-02    9.1735460938e+04
    1.7889810726e-02    9.1718726562e+04
    1.7899956554e-02    9.1701687500e+04
    1.7909821123e-02    9.1684843750e+04
    1.7919966951e-02    9.1668007812e+04
    1.7929831520e-02    9.1651164062e+04
    1.7939977348e-02    9.1634695312e+04
    1.7949841917e-02    9.1618125000e+04
    1.7959989607e-02    9.1601742188e+04
    1.7969856039e-02    9.1585250000e+04
    1.7979720607e-02    9.1569320312e+04
    1.7989868298e-02    9.1552773438e+04
    1.7999734730e-02    9.1537062500e+04
    1.8009884283e-02    9.1520687500e+04
    1.8019750714e-02    9.1505062500e+04
    1.8029900268e-02    9.1488679688e+04
    1.8039768562e-02    9.1473101562e+04
    1.8049918115e-02    9.1457039062e+04
    1.8059788272e-02    9.1441664062e+04
    1.8069937825e-02    9.1426062500e+04
    1.8079807982e-02    9.1410718750e+04
    1.8089959398e-02    9.1394945312e+04
    1.8099829555e-02    9.1379593750e+04
    1.8109982833e-02    9.1364226562e+04
    1.8119854853e-02    9.1349226562e+04
    1.8129725009e-02    9.1334132812e+04
    1.8139880151e-02    9.1319210938e+04
    1.8149752170e-02    9.1304554688e+04
    1.8159907311e-02    9.1288976562e+04
    1.8169781193e-02    9.1274429688e+04
    1.8179938197e-02    9.1259835938e+04
    1.8189812079e-02    9.1245468750e+04
    1.8199969083e-02    9.1230460938e+04
    1.8209844828e-02    9.1216460938e+04
    1.8219720572e-02    9.1202476562e+04
    1.8229879439e-02    9.1187414062e+04
    1.8239757046e-02    9.1173289062e+04
    1.8249915913e-02    9.1159039062e+04
    1.8259793520e-02    9.1145023438e+04
    1.8269954249e-02    9.1130726562e+04
    1.8279833719e-02    9.1117351562e+04
    1.8289996311e-02    9.1102898438e+04
    1.8299875781e-02    9.1089445312e+04
    1.8309757113e-02    9.1075812500e+04
    1.8319919705e-02    9.1061867188e+04
    1.8329801038e-02    9.1048710938e+04
    1.8339965492e-02    9.1035039062e+04
    1.8349848688e-02    9.1022070312e+04
    1.8359731883e-02    9.1008843750e+04
    1.8369898200e-02    9.0995437500e+04
    1.8379783258e-02    9.0982250000e+04
    1.8389949575e-02    9.0969000000e+04
    1.8399836496e-02    9.0956125000e+04
    1.8409721553e-02    9.0943445312e+04
    1.8419891596e-02    9.0930476562e+04
    1.8429778516e-02    9.0917882812e+04
    1.8439948559e-02    9.0905031250e+04
    1.8449837342e-02    9.0892570312e+04
    1.8459726125e-02    9.0880195312e+04
    1.8469898030e-02    9.0867500000e+04
    1.8479788676e-02    9.0855062500e+04
    1.8489960581e-02    9.0842570312e+04
    1.8499853089e-02    9.0830664062e+04
    1.8509743735e-02    9.0818710938e+04
    1.8519919366e-02    9.0806242188e+04
    1.8529811874e-02    9.0794664062e+04
    1.8539987504e-02    9.0782914062e+04
    1.8549881876e-02    9.0770851562e+04
    1.8559776247e-02    9.0759195312e+04
    1.8569955602e-02    9.0747750000e+04
    1.8579849973e-02    9.0736281250e+04
    1.8589748070e-02    9.0724539062e+04
    1.8599927425e-02    9.0712960938e+04
    1.8609823659e-02    9.0702195312e+04
    1.8619723618e-02    9.0690812500e+04
    1.8629904836e-02    9.0679367188e+04
    1.8639802933e-02    9.0668585938e+04
    1.8649986014e-02    9.0657382812e+04
    1.8659887835e-02    9.0646210938e+04
    1.8669787794e-02    9.0635445312e+04
    1.8679972738e-02    9.0624460938e+04
    1.8689874560e-02    9.0613710938e+04
    1.8699778244e-02    9.0602976562e+04
    1.8709965050e-02    9.0592312500e+04
    1.8719868734e-02    9.0581750000e+04
    1.8729774281e-02    9.0571554688e+04
    1.8739961088e-02    9.0561101562e+04
    1.8749866635e-02    9.0551093750e+04
    1.8759774044e-02    9.0541007812e+04
    1.8769964576e-02    9.0530875000e+04
    1.8779871985e-02    9.0520867188e+04
    1.8789779395e-02    9.0511226562e+04
    1.8799971789e-02    9.0501148438e+04
    1.8809881061e-02    9.0491648438e+04
    1.8819790334e-02    9.0481976562e+04
    1.8829984590e-02    9.0472273438e+04
    1.8839895725e-02    9.0462773438e+04
    1.8849806860e-02    9.0453492188e+04
    1.8859719858e-02    9.0444023438e+04
    1.8869915977e-02    9.0434523438e+04
    1.8879828975e-02    9.0425273438e+04
    1.8889743835e-02    9.0416375000e+04
    1.8899941817e-02    9.0406992188e+04
    1.8909856677e-02    9.0397992188e+04
    1.8919771537e-02    9.0389273438e+04
    1.8929971382e-02    9.0380554688e+04
    1.8939888105e-02    9.0371789062e+04
    1.8949806690e-02    9.0362945312e+04
    1.8959725276e-02    9.0354960938e+04
    1.8969926983e-02    9.0346554688e+04
    1.8979845569e-02    9.0337664062e+04
    1.8989766017e-02    9.0329585938e+04
    1.8999969587e-02    9.0321500000e+04
    1.9009890035e-02    9.0312914062e+04
    1.9019812346e-02    9.0304835938e+04
    1.9029734656e-02    9.0297039062e+04
    1.9039940089e-02    9.0289000000e+04
    1.9049864262e-02    9.0281085938e+04
    1.9059788436e-02    9.0273398438e+04
    1.9069995731e-02    9.0265773438e+04
    1.9079921767e-02    9.0258093750e+04
    1.9089847803e-02    9.0250664062e+04
    1.9099773839e-02    9.0243335938e+04
    1.9109984860e-02    9.0235851562e+04
    1.9119910896e-02    9.0228562500e+04
    1.9129838794e-02    9.0221523438e+04
    1.9139768556e-02    9.0214343750e+04
    1.9149981439e-02    9.0207226562e+04
    1.9159911200e-02    9.0200335938e+04
    1.9169840962e-02    9.0193414062e+04
    1.9179770723e-02    9.0186664062e+04
    1.9189985469e-02    9.0179867188e+04
    1.9199918956e-02    9.0173429688e+04
    1.9209850580e-02    9.0166968750e+04
    1.9219784066e-02    9.0160593750e+04
    1.9229717553e-02    9.0154429688e+04
    1.9239934161e-02    9.0148101562e+04
    1.9249869511e-02    9.0141960938e+04
    1.9259804860e-02    9.0135882812e+04
    1.9269740209e-02    9.0130031250e+04
    1.9279960543e-02    9.0124062500e+04
    1.9289897755e-02    9.0118156250e+04
    1.9299834967e-02    9.0112320312e+04
    1.9309772179e-02    9.0106617188e+04
    1.9319994375e-02    9.0101007812e+04
    1.9329933450e-02    9.0095351562e+04
    1.9339872524e-02    9.0089648438e+04
    1.9349811599e-02    9.0084492188e+04
    1.9359752536e-02    9.0079500000e+04
    1.9369976595e-02    9.0073726562e+04
    1.9379919395e-02    9.0068648438e+04
    1.9389860332e-02    9.0064093750e+04
    1.9399803132e-02    9.0058898438e+04
    1.9409745932e-02    9.0053929688e+04
    1.9419973716e-02    9.0049429688e+04
    1.9429916516e-02    9.0044835938e+04
    1.9439861178e-02    9.0039992188e+04
[...]
    1.1513998359e-01    1.0121057031e+05
    1.1514969170e-01    1.0121056250e+05
    1.1515971273e-01    1.0121056250e+05
    1.1516972631e-01    1.0121055469e+05
    1.1517974734e-01    1.0121055469e+05
    1.1518976837e-01    1.0121055469e+05
    1.1519978940e-01    1.0121053906e+05
    1.1520980299e-01    1.0121053906e+05
    1.1521982402e-01    1.0121053906e+05
    1.1522984505e-01    1.0121053906e+05
    1.1523986608e-01    1.0121053906e+05
    1.1524988711e-01    1.0121053906e+05
    1.1525990069e-01    1.0121053125e+05
    1.1526992172e-01    1.0121053125e+05
    1.1527994275e-01    1.0121053125e+05
    1.1528996378e-01    1.0121052344e+05
    1.1529997736e-01    1.0121052344e+05
    1.1530999839e-01    1.0121052344e+05
    1.1531970650e-01    1.0121052344e+05
    1.1532972753e-01    1.0121052344e+05
    1.1533974111e-01    1.0121052344e+05
    1.1534976214e-01    1.0121050781e+05
    1.1535978317e-01    1.0121050781e+05
    1.1536980420e-01    1.0121050000e+05
    1.1537981778e-01    1.0121050000e+05
    1.1538983881e-01    1.0121050000e+05
    1.1539985985e-01    1.0121049219e+05
    1.1540988088e-01    1.0121049219e+05
    1.1541989446e-01    1.0121049219e+05
    1.1542991549e-01    1.0121047656e+05
    1.1543993652e-01    1.0121047656e+05
    1.1544995755e-01    1.0121047656e+05
    1.1545997858e-01    1.0121047656e+05
    1.1546999216e-01    1.0121047656e+05
    1.1547970027e-01    1.0121046875e+05
    1.1548972130e-01    1.0121046875e+05
    1.1549974233e-01    1.0121046875e+05
    1.1550975591e-01    1.0121046094e+05
    1.1551977694e-01    1.0121046094e+05
    1.1552979797e-01    1.0121046094e+05
    1.1553981900e-01    1.0121046094e+05
    1.1554983258e-01    1.0121046094e+05
    1.1555985361e-01    1.0121046094e+05
    1.1556987464e-01    1.0121046094e+05
    1.1557989568e-01    1.0121044531e+05
    1.1558990926e-01    1.0121044531e+05
    1.1559993029e-01    1.0121044531e+05
    1.1560995132e-01    1.0121043750e+05
    1.1561997235e-01    1.0121043750e+05
    1.1562998593e-01    1.0121042969e+05
    1.1563969404e-01    1.0121042969e+05
    1.1564971507e-01    1.0121042969e+05
    1.1565973610e-01    1.0121041406e+05
    1.1566975713e-01    1.0121041406e+05
    1.1567977071e-01    1.0121041406e+05
    1.1568979174e-01    1.0121041406e+05
    1.1569981277e-01    1.0121041406e+05
    1.1570983380e-01    1.0121041406e+05
    1.1571984738e-01    1.0121040625e+05
    1.1572986841e-01    1.0121040625e+05
    1.1573988944e-01    1.0121039844e+05
    1.1574991047e-01    1.0121039844e+05
    1.1575992405e-01    1.0121039844e+05
    1.1576994509e-01    1.0121039844e+05
    1.1577996612e-01    1.0121039844e+05
    1.1578998715e-01    1.0121039844e+05
    1.1579968780e-01    1.0121038281e+05
    1.1580970883e-01    1.0121038281e+05
    1.1581972986e-01    1.0121038281e+05
    1.1582975090e-01    1.0121037500e+05
    1.1583976448e-01    1.0121037500e+05
    1.1584978551e-01    1.0121037500e+05
    1.1585980654e-01    1.0121036719e+05
    1.1586982757e-01    1.0121036719e+05
    1.1587984860e-01    1.0121036719e+05
    1.1588986218e-01    1.0121035156e+05
    1.1589988321e-01    1.0121035156e+05
    1.1590990424e-01    1.0121035156e+05
    1.1591992527e-01    1.0121035156e+05
    1.1592993885e-01    1.0121035156e+05
    1.1593995988e-01    1.0121035156e+05
    1.1594998091e-01    1.0121035156e+05
    1.1596000195e-01    1.0121034375e+05
    1.1596970260e-01    1.0121034375e+05
    1.1597972363e-01    1.0121034375e+05
    1.1598974466e-01    1.0121033594e+05
    1.1599976569e-01    1.0121033594e+05
    1.1600977927e-01    1.0121033594e+05
    1.1601980031e-01    1.0121033594e+05
    1.1602982134e-01    1.0121033594e+05
    1.1603984237e-01    1.0121032031e+05
    1.1604986340e-01    1.0121032031e+05
    1.1605987698e-01    1.0121031250e+05
    1.1606989801e-01    1.0121031250e+05
    1.1607991904e-01    1.0121031250e+05
    1.1608994007e-01    1.0121031250e+05
    1.1609995365e-01    1.0121030469e+05
    1.1610997468e-01    1.0121030469e+05
    1.1611999571e-01    1.0121030469e+05
    1.1612970382e-01    1.0121030469e+05
    1.1613971740e-01    1.0121028906e+05
    1.1614973843e-01    1.0121028906e+05
    1.1615975946e-01    1.0121028906e+05
    1.1616978049e-01    1.0121028125e+05
    1.1617979407e-01    1.0121028125e+05
    1.1618981510e-01    1.0121027344e+05
    1.1619983613e-01    1.0121027344e+05
    1.1620985717e-01    1.0121027344e+05
    1.1621987075e-01    1.0121027344e+05
    1.1622989178e-01    1.0121027344e+05
    1.1623991281e-01    1.0121027344e+05
    1.1624993384e-01    1.0121027344e+05
    1.1625995487e-01    1.0121027344e+05
    1.1626996845e-01    1.0121027344e+05
    1.1627998948e-01    1.0121025781e+05
    1.1628969759e-01    1.0121025781e+05
    1.1629971862e-01    1.0121025781e+05
    1.1630973220e-01    1.0121025000e+05
    1.1631975323e-01    1.0121025000e+05
    1.1632977426e-01    1.0121025000e+05
    1.1633979529e-01    1.0121024219e+05
    1.1634980887e-01    1.0121024219e+05
    1.1635982990e-01    1.0121022656e+05
    1.1636985093e-01    1.0121022656e+05
    1.1637987196e-01    1.0121022656e+05
    1.1638988554e-01    1.0121022656e+05
    1.1639990658e-01    1.0121021875e+05
    1.1640992761e-01    1.0121021875e+05
    1.1641994864e-01    1.0121021094e+05
    1.1642996967e-01    1.0121021094e+05
    1.1643998325e-01    1.0121021094e+05
    1.1644969136e-01    1.0121021094e+05
    1.1645971239e-01    1.0121019531e+05
    1.1646973342e-01    1.0121019531e+05
    1.1647974700e-01    1.0121019531e+05
    1.1648976803e-01    1.0121019531e+05
    1.1649978906e-01    1.0121019531e+05
    1.1650981009e-01    1.0121018750e+05
    1.1651982367e-01    1.0121018750e+05
    1.1652984470e-01    1.0121018750e+05
    1.1653986573e-01    1.0121018750e+05
    1.1654988676e-01    1.0121017969e+05
    1.1655990779e-01    1.0121017969e+05
    1.1656992137e-01    1.0121017969e+05
    1.1657994241e-01    1.0121016406e+05
    1.1658996344e-01    1.0121016406e+05
    1.1659998447e-01    1.0121016406e+05
    1.1660968512e-01    1.0121016406e+05
    1.1661970615e-01    1.0121016406e+05
    1.1662972718e-01    1.0121015625e+05
    1.1663974822e-01    1.0121015625e+05
    1.1664976180e-01    1.0121015625e+05
    1.1665978283e-01    1.0121014844e+05
    1.1666980386e-01    1.0121014844e+05
    1.1667982489e-01    1.0121014844e+05
    1.1668984592e-01    1.0121014844e+05
    1.1669985950e-01    1.0121014844e+05
    1.1670988053e-01    1.0121014844e+05
    1.1671990156e-01    1.0121013281e+05
    1.1672992259e-01    1.0121013281e+05
    1.1673993617e-01    1.0121012500e+05
    1.1674995720e-01    1.0121012500e+05
    1.1675997823e-01    1.0121012500e+05
    1.1676999927e-01    1.0121012500e+05
    1.1677969992e-01    1.0121012500e+05
    1.1678972095e-01    1.0121011719e+05
    1.1679974198e-01    1.0121011719e+05
    1.1680976301e-01    1.0121011719e+05
    1.1681978405e-01    1.0121010156e+05
    1.1682979763e-01    1.0121010156e+05
    1.1683981866e-01    1.0121010156e+05
    1.1684983969e-01    1.0121010156e+05
    1.1685986072e-01    1.0121010156e+05
    1.1686987430e-01    1.0121010156e+05
    1.1687989533e-01    1.0121010156e+05
    1.1688991636e-01    1.0121010156e+05
    1.1689993739e-01    1.0121010156e+05
    1.1690995097e-01    1.0121010156e+05
    1.1691997200e-01    1.0121009375e+05
    1.1692999303e-01    1.0121009375e+05
    1.1693970114e-01    1.0121008594e+05
    1.1694972217e-01    1.0121008594e+05
    1.1695973575e-01    1.0121008594e+05
    1.1696975678e-01    1.0121007031e+05
    1.1697977781e-01    1.0121007031e+05
    1.1698979884e-01    1.0121006250e+05
    1.1699981242e-01    1.0121006250e+05
    1.1700983346e-01    1.0121006250e+05
    1.1701985449e-01    1.0121006250e+05
    1.1702987552e-01    1.0121005469e+05
    1.1703988910e-01    1.0121005469e+05
    1.1704991013e-01    1.0121005469e+05
    1.1705993116e-01    1.0121003906e+05
    1.1706995219e-01    1.0121003906e+05
    1.1707997322e-01    1.0121003906e+05
    1.1708998680e-01    1.0121003906e+05
    1.1709969491e-01    1.0121003906e+05
    1.1710971594e-01    1.0121003906e+05
    1.1711973697e-01    1.0121003906e+05
    1.1712975055e-01    1.0121003906e+05
    1.1713977158e-01    1.0121003906e+05
    1.1714979261e-01    1.0121003125e+05
    1.1715981364e-01    1.0121003125e+05
    1.1716983467e-01    1.0121003125e+05
    1.1717984825e-01    1.0121002344e+05
    1.1718986928e-01    1.0121002344e+05
    1.1719989032e-01    1.0121002344e+05
    1.1720991135e-01    1.0121002344e+05
    1.1721992493e-01    1.0121000781e+05
    1.1722994596e-01    1.0121000781e+05
    1.1723996699e-01    1.0121000000e+05
    1.1724998802e-01    1.0121000000e+05
    1.1725968868e-01    1.0121000000e+05
    1.1726970971e-01    1.0120999219e+05
    1.1727973074e-01    1.0120999219e+05
    1.1728975177e-01    1.0120999219e+05
    1.1729977280e-01    1.0120999219e+05
    1.1730978638e-01    1.0120997656e+05
    1.1731980741e-01    1.0120997656e+05
    1.1732982844e-01    1.0120997656e+05
    1.1733984947e-01    1.0120997656e+05
    1.1734986305e-01    1.0120997656e+05
    1.1735988408e-01    1.0120997656e+05
    1.1736990511e-01    1.0120996875e+05
    1.1737992615e-01    1.0120996875e+05
    1.1738994718e-01    1.0120996875e+05
    1.1739996076e-01    1.0120996094e+05
    1.1740998179e-01    1.0120996094e+05
    1.1741968989e-01    1.0120996094e+05
    1.1742971092e-01    1.0120996094e+05
    1.1743972450e-01    1.0120996094e+05
    1.1744974554e-01    1.0120996094e+05
    1.1745976657e-01    1.0120994531e+05
    1.1746978760e-01    1.0120994531e+05
    1.1747980118e-01    1.0120993750e+05
    1.1748982221e-01    1.0120993750e+05
    1.1749984324e-01    1.0120993750e+05
    1.1750986427e-01    1.0120993750e+05
    1.1751988530e-01    1.0120992969e+05
    1.1752989888e-01    1.0120992969e+05
    1.1753991991e-01    1.0120992969e+05
    1.1754994094e-01    1.0120991406e+05
    1.1755996197e-01    1.0120991406e+05
    1.1756997555e-01    1.0120991406e+05
    1.1757999659e-01    1.0120991406e+05
    1.1758970469e-01    1.0120991406e+05
    1.1759972572e-01    1.0120991406e+05
    1.1760974675e-01    1.0120990625e+05
    1.1761976033e-01    1.0120990625e+05
    1.1762978137e-01    1.0120990625e+05
    1.1763980240e-01    1.0120989844e+05
    1.1764982343e-01    1.0120989844e+05
    1.1765983701e-01    1.0120989844e+05
    1.1766985804e-01    1.0120989844e+05
    1.1767987907e-01    1.0120989844e+05
    1.1768990010e-01    1.0120989844e+05
    1.1769992113e-01    1.0120988281e+05
    1.1770993471e-01    1.0120988281e+05
    1.1771995574e-01    1.0120988281e+05
    1.1772997677e-01    1.0120987500e+05
    1.1773999780e-01    1.0120987500e+05
    1.1774969846e-01    1.0120987500e+05
    1.1775971949e-01    1.0120986719e+05
    1.1776974052e-01    1.0120986719e+05
    1.1777976155e-01    1.0120986719e+05
    1.1778977513e-01    1.0120986719e+05
    1.1779979616e-01    1.0120985156e+05
    1.1780981719e-01    1.0120985156e+05
    1.1781983823e-01    1.0120985156e+05
    1.1782985926e-01    1.0120985156e+05
    1.1783987284e-01    1.0120985156e+05
    1.1784989387e-01    1.0120985156e+05
    1.1785991490e-01    1.0120984375e+05
    1.1786993593e-01    1.0120984375e+05
    1.1787994951e-01    1.0120984375e+05
    1.1788997054e-01    1.0120983594e+05
    1.1789999157e-01    1.0120983594e+05
    1.1790969968e-01    1.0120983594e+05
    1.1791972071e-01    1.0120983594e+05
    1.1792973429e-01    1.0120983594e+05
    1.1793975532e-01    1.0120983594e+05
    1.1794977635e-01    1.0120982031e+05
    1.1795979738e-01    1.0120982031e+05
    1.1796981096e-01    1.0120982031e+05
    1.1797983199e-01    1.0120981250e+05
    1.1798985302e-01    1.0120981250e+05
    1.1799987406e-01    1.0120981250e+05
    1.1800988764e-01    1.0120981250e+05
    1.1801990867e-01    1.0120980469e+05
    1.1802992970e-01    1.0120980469e+05
    1.1803995073e-01    1.0120980469e+05
    1.1804997176e-01    1.0120978906e+05
    1.1805998534e-01    1.0120978906e+05
    1.1806969345e-01    1.0120978906e+05
    1.1807971448e-01    1.0120978906e+05
    1.1808973551e-01    1.0120978906e+05
    1.1809974909e-01    1.0120978906e+05
    1.1810977012e-01    1.0120978125e+05
    1.1811979115e-01    1.0120978125e+05
    1.1812981218e-01    1.0120978125e+05
    1.1813983321e-01    1.0120977344e+05
    1.1814984679e-01    1.0120977344e+05
    1.1815986782e-01    1.0120977344e+05
    1.1816988885e-01    1.0120977344e+05
    1.1817990988e-01    1.0120977344e+05
    1.1818992347e-01    1.0120977344e+05
    1.1819994450e-01    1.0120975781e+05
    1.1820996553e-01    1.0120975781e+05
    1.1821998656e-01    1.0120975781e+05
    1.1822968721e-01    1.0120975781e+05
    1.1823970824e-01    1.0120975000e+05
    1.1824972928e-01    1.0120975000e+05
    1.1825975031e-01    1.0120975000e+05
    1.1826977134e-01    1.0120974219e+05
    1.1827978492e-01    1.0120974219e+05
    1.1828980595e-01    1.0120972656e+05
    1.1829982698e-01    1.0120972656e+05
    1.1830984801e-01    1.0120972656e+05
    1.1831986159e-01    1.0120972656e+05
    1.1832988262e-01    1.0120972656e+05
    1.1833990365e-01    1.0120972656e+05
    1.1834992468e-01    1.0120971875e+05
    1.1835994571e-01    1.0120971875e+05
    1.1836995929e-01    1.0120971875e+05
    1.1837998033e-01    1.0120971875e+05
    1.1838968843e-01    1.0120971094e+05
    1.1839970946e-01    1.0120971094e+05
    1.1840972304e-01    1.0120971094e+05
    1.1841974407e-01    1.0120971094e+05
    1.1842976511e-01    1.0120971094e+05
    1.1843978614e-01    1.0120971094e+05
    1.1844980717e-01    1.0120969531e+05
    1.1845982075e-01    1.0120969531e+05
    1.1846984178e-01    1.0120969531e+05
    1.1847986281e-01    1.0120968750e+05
    1.1848988384e-01    1.0120968750e+05
    1.1849989742e-01    1.0120968750e+05
    1.1850991845e-01    1.0120967969e+05
    1.1851993948e-01    1.0120967969e+05
    1.1852996051e-01    1.0120967969e+05
    1.1853997409e-01    1.0120967969e+05
    1.1854999512e-01    1.0120966406e+05
    1.1855970323e-01    1.0120966406e+05
    1.1856972426e-01    1.0120966406e+05
    1.1857974529e-01    1.0120966406e+05
    1.1858975887e-01    1.0120966406e+05
    1.1859977990e-01    1.0120966406e+05
    1.1860980093e-01    1.0120965625e+05
    1.1861982197e-01    1.0120965625e+05
    1.1862983555e-01    1.0120964844e+05
    1.1863985658e-01    1.0120964844e+05
    1.1864987761e-01    1.0120964844e+05
    1.1865989864e-01    1.0120964844e+05
    1.1866991967e-01    1.0120964844e+05
    1.1867993325e-01    1.0120964844e+05
    1.1868995428e-01    1.0120964844e+05
    1.1869997531e-01    1.0120963281e+05
    1.1870999634e-01    1.0120963281e+05
    1.1871969700e-01    1.0120963281e+05
    1.1872971803e-01    1.0120962500e+05
    1.1873973906e-01    1.0120962500e+05
    1.1874976009e-01    1.0120962500e+05
    1.1875977367e-01    1.0120961719e+05
    1.1876979470e-01    1.0120961719e+05
    1.1877981573e-01    1.0120961719e+05
    1.1878983676e-01    1.0120960156e+05
    1.1879985780e-01    1.0120960156e+05
    1.1880987138e-01    1.0120960156e+05
    1.1881989241e-01    1.0120960156e+05
    1.1882991344e-01    1.0120960156e+05
    1.1883993447e-01    1.0120960156e+05
    1.1884994805e-01    1.0120960156e+05
    1.1885996908e-01    1.0120959375e+05
    1.1886999011e-01    1.0120959375e+05
    1.1887969822e-01    1.0120959375e+05
    1.1888971925e-01    1.0120958594e+05
    1.1889973283e-01    1.0120958594e+05
    1.1890975386e-01    1.0120958594e+05
    1.1891977489e-01    1.0120958594e+05
    1.1892979592e-01    1.0120958594e+05
    1.1893980950e-01    1.0120958594e+05
    1.1894983053e-01    1.0120958594e+05
    1.1895985156e-01    1.0120957031e+05
    1.1896987259e-01    1.0120957031e+05
    1.1897989362e-01    1.0120957031e+05
    1.1898990721e-01    1.0120956250e+05
    1.1899992824e-01    1.0120956250e+05
    1.1900994927e-01    1.0120956250e+05
    1.1901997030e-01    1.0120955469e+05
    1.1902998388e-01    1.0120955469e+05
    1.1903969198e-01    1.0120955469e+05
    1.1904971302e-01    1.0120953906e+05
    1.1905973405e-01    1.0120953906e+05
    1.1906974763e-01    1.0120953906e+05
    1.1907976866e-01    1.0120953906e+05
    1.1908978969e-01    1.0120953906e+05
    1.1909981072e-01    1.0120953906e+05
    1.1910983175e-01    1.0120953906e+05
    1.1911984533e-01    1.0120953125e+05
    1.1912986636e-01    1.0120953125e+05
    1.1913988739e-01    1.0120953125e+05
    1.1914990842e-01    1.0120953125e+05
    1.1915992200e-01    1.0120952344e+05
    1.1916994303e-01    1.0120952344e+05
    1.1917996407e-01    1.0120952344e+05
    1.1918998510e-01    1.0120952344e+05
    1.1919969320e-01    1.0120952344e+05
    1.1920970678e-01    1.0120950781e+05
    1.1921972781e-01    1.0120950781e+05
    1.1922974885e-01    1.0120950781e+05
    1.1923976988e-01    1.0120950000e+05
    1.1924978346e-01    1.0120950000e+05
    1.1925980449e-01    1.0120950000e+05
    1.1926982552e-01    1.0120950000e+05
    1.1927984655e-01    1.0120949219e+05
    1.1928986758e-01    1.0120949219e+05
    1.1929988116e-01    1.0120949219e+05
    1.1930990219e-01    1.0120949219e+05
    1.1931992322e-01    1.0120947656e+05
    1.1932994425e-01    1.0120947656e+05
    1.1933995783e-01    1.0120947656e+05
    1.1934997886e-01    1.0120947656e+05
    1.1935999990e-01    1.0120947656e+05
    1.1936970800e-01    1.0120947656e+05
    1.1937972903e-01    1.0120946875e+05
    1.1938974261e-01    1.0120946875e+05
    1.1939976364e-01    1.0120946875e+05
    1.1940978467e-01    1.0120946875e+05
    1.1941980571e-01    1.0120946094e+05
    1.1942981929e-01    1.0120946094e+05
    1.1943984032e-01    1.0120946094e+05
    1.1944986135e-01    1.0120946094e+05
    1.1945988238e-01    1.0120946094e+05
    1.1946990341e-01    1.0120944531e+05
    1.1947991699e-01    1.0120944531e+05
    1.1948993802e-01    1.0120944531e+05
    1.1949995905e-01    1.0120944531e+05
    1.1950998008e-01    1.0120943750e+05
    1.1951999366e-01    1.0120943750e+05
    1.1952970177e-01    1.0120943750e+05
    1.1953972280e-01    1.0120943750e+05
    1.1954974383e-01    1.0120942969e+05
    1.1955975741e-01    1.0120942969e+05
    1.1956977844e-01    1.0120941406e+05
    1.1957979947e-01    1.0120941406e+05
    1.1958982050e-01    1.0120941406e+05
    1.1959984154e-01    1.0120941406e+05
    1.1960985512e-01    1.0120941406e+05
    1.1961987615e-01    1.0120941406e+05
    1.1962989718e-01    1.0120941406e+05
    1.1963991821e-01    1.0120940625e+05
    1.1964993179e-01    1.0120940625e+05
    1.1965995282e-01    1.0120940625e+05
    1.1966997385e-01    1.0120939844e+05
    1.1967999488e-01    1.0120939844e+05
    1.1968970299e-01    1.0120939844e+05
    1.1969971657e-01    1.0120939844e+05
    1.1970973760e-01    1.0120939844e+05
    1.1971975863e-01    1.0120939844e+05
    1.1972977966e-01    1.0120939844e+05
    1.1973979324e-01    1.0120939844e+05
    1.1974981427e-01    1.0120938281e+05
    1.1975983530e-01    1.0120938281e+05
    1.1976985633e-01    1.0120938281e+05
    1.1977987736e-01    1.0120938281e+05
    1.1978989094e-01    1.0120937500e+05
    1.1979991198e-01    1.0120937500e+05
    1.1980993301e-01    1.0120937500e+05
    1.1981995404e-01    1.0120936719e+05
    1.1982996762e-01    1.0120936719e+05
    1.1983998865e-01    1.0120936719e+05
    1.1984969676e-01    1.0120936719e+05
    1.1985971779e-01    1.0120935156e+05
    1.1986973882e-01    1.0120935156e+05
    1.1987975240e-01    1.0120935156e+05
    1.1988977343e-01    1.0120935156e+05
    1.1989979446e-01    1.0120934375e+05
    1.1990981549e-01    1.0120934375e+05
    1.1991982907e-01    1.0120934375e+05
    1.1992985010e-01    1.0120933594e+05
    1.1993987113e-01    1.0120933594e+05
    1.1994989216e-01    1.0120933594e+05
    1.1995991319e-01    1.0120933594e+05
    1.1996992677e-01    1.0120933594e+05
    1.1997994781e-01    1.0120933594e+05
    1.1998996884e-01    1.0120933594e+05
    1.1999998987e-01    1.0120933594e+05
endcurve
