Curveplot
LS-DYNA keyword deck by LS-PrePost                          
Time
Pressure
Defined Connection
Pressure @ 9 #pts=12001
* Minval=     7.7506687500e+04 at time=         0.0130499378
* Maxval=     2.7080862500e+05 at time=         0.0050698356
    0.0000000000e+00    1.0120000000e+05
    9.9485332612e-06    1.0120000000e+05
    1.9963579689e-05    1.0120000000e+05
    2.9983320928e-05    1.0120000000e+05
    3.9941602154e-05    1.0120000000e+05
    4.9957357987e-05    1.0120000000e+05
    5.9977155615e-05    1.0120000000e+05
    6.9936999353e-05    1.0120000000e+05
    7.9986544733e-05    1.0120000000e+05
    8.9936962468e-05    1.0120000000e+05
    9.9980912637e-05    1.0120000000e+05
    1.0996472702e-04    1.0120000000e+05
    1.1994566739e-04    1.0120000000e+05
    1.2998808234e-04    1.0120000000e+05
    1.3993181346e-04    1.0120000000e+05
    1.4999507403e-04    1.0120000000e+05
    1.5993650595e-04    1.0120000000e+05
    1.6998327919e-04    1.0120000000e+05
    1.7996682436e-04    1.0120000000e+05
    1.8995917344e-04    1.0120000000e+05
    1.9995291950e-04    1.0120000000e+05
    2.0993957878e-04    1.0120000000e+05
    2.1999909950e-04    1.0120000000e+05
    2.2994857864e-04    1.0120000000e+05
    2.3995758966e-04    1.0120000000e+05
    2.4992902763e-04    1.0120000000e+05
    2.5994767202e-04    1.0120000000e+05
    2.6991256163e-04    1.0120000000e+05
    2.7999927988e-04    1.0120000000e+05
    2.8990759165e-04    1.0120000000e+05
    2.9992213240e-04    1.0120000000e+05
    3.0994569534e-04    1.0120000000e+05
    3.1997691258e-04    1.0120000000e+05
    3.2991258195e-04    1.0120000000e+05
    3.3995142439e-04    1.0120000000e+05
    3.4999189666e-04    1.0120000000e+05
    3.5992715857e-04    1.0120000000e+05
    3.6996402196e-04    1.0120000000e+05
    3.7999826600e-04    1.0120000000e+05
    3.8992028567e-04    1.0120000000e+05
    3.9994157851e-04    1.0120000000e+05
    4.0995067684e-04    1.0120000000e+05
    4.1995311039e-04    1.0120000000e+05
    4.2994364048e-04    1.0120000000e+05
    4.3992040446e-04    1.0120000000e+05
    4.4999341480e-04    1.0120000000e+05
    4.5993825188e-04    1.0120000000e+05
    4.6997974277e-04    1.0120000000e+05
    4.7988494043e-04    1.0120000000e+05
    4.8988516210e-04    1.0120000000e+05
    4.9998186296e-04    1.0120000000e+05
    5.0993356854e-04    1.0120000000e+05
    5.1998230629e-04    1.0120000000e+05
    5.2988185780e-04    1.0120000000e+05
    5.3999869851e-04    1.0120000000e+05
    5.4996245308e-04    1.0120000000e+05
    5.5989186512e-04    1.0120000000e+05
    5.6991615565e-04    1.0120000000e+05
    5.7990686037e-04    1.0120000000e+05
    5.8999133762e-04    1.0120000000e+05
    5.9990893351e-04    1.0120000000e+05
    6.0991849750e-04    1.0120000000e+05
    6.1988545349e-04    1.0120000000e+05
    6.2994443579e-04    1.0120000000e+05
    6.3996412791e-04    1.0120000000e+05
    6.4993940759e-04    1.0120000000e+05
    6.5986794652e-04    1.0120000000e+05
    6.6988705657e-04    1.0120000000e+05
    6.7999836756e-04    1.0120000000e+05
    6.8991829176e-04    1.0120000000e+05
    6.9992488716e-04    1.0120000000e+05
    7.0988066727e-04    1.0120000000e+05
    7.1992637822e-04    1.0120000000e+05
    7.2991574416e-04    1.0120000000e+05
    7.3999498272e-04    1.0120000000e+05
    7.4986502295e-04    1.0120000000e+05
    7.5997383101e-04    1.0120000000e+05
    7.6986796921e-04    1.0120000000e+05
    7.7984924428e-04    1.0120000000e+05
    7.8991503688e-04    1.0120000000e+05
    7.9991720850e-04    1.0120000000e+05
    8.0984912347e-04    1.0120000000e+05
    8.1986747682e-04    1.0120000000e+05
    8.2997360732e-04    1.0120000000e+05
    8.3984364755e-04    1.0120000000e+05
    8.4996217629e-04    1.0120000000e+05
    8.5983867757e-04    1.0120000000e+05
    8.6996587925e-04    1.0120000000e+05
    8.7984476704e-04    1.0120000000e+05
    8.8997656712e-04    1.0120000000e+05
    8.9984841179e-04    1.0120000000e+05
    9.0998050291e-04    1.0120000000e+05
    9.1985129984e-04    1.0120000000e+05
    9.2997943284e-04    1.0120000000e+05
    9.3983975239e-04    1.0120000000e+05
    9.4995950349e-04    1.0120000000e+05
    9.5998472534e-04    1.0120000000e+05
    9.6991198370e-04    1.0120000000e+05
    9.7992061637e-04    1.0120000000e+05
    9.8982767668e-04    1.0120000000e+05
    9.9981506355e-04    1.0120000000e+05
    1.0098840576e-03    1.0120000000e+05
    1.0198468808e-03    1.0120000000e+05
    1.0298901470e-03    1.0120000000e+05
    1.0398234008e-03    1.0120000000e+05
    1.0498361662e-03    1.0120000000e+05
    1.0599296074e-03    1.0120000000e+05
    1.0699036065e-03    1.0120000000e+05
    1.0799566517e-03    1.0120000000e+05
    1.0898961918e-03    1.0120000000e+05
    1.0999143124e-03    1.0120000000e+05
    1.1098093819e-03    1.0120000000e+05
    1.1199865257e-03    1.0120000000e+05
    1.1298337486e-03    1.0120000000e+05
    1.1399652576e-03    1.0120000000e+05
    1.1499685934e-03    1.0120000000e+05
    1.1598396813e-03    1.0120000000e+05
    1.1699999450e-03    1.0120000000e+05
    1.1798130581e-03    1.0120000000e+05
    1.1899175588e-03    1.0120000000e+05
    1.1998841073e-03    1.0120000000e+05
    1.2099286541e-03    1.0120000000e+05
    1.2198310578e-03    1.0120000000e+05
    1.2298099464e-03    1.0120000000e+05
    1.2398664840e-03    1.0120000000e+05
    1.2497759890e-03    1.0120000000e+05
    1.2599895708e-03    1.0120000000e+05
    1.2698245700e-03    1.0120000000e+05
    1.2799670221e-03    1.0120000000e+05
    1.2899554567e-03    1.0120000000e+05
    1.2997859158e-03    1.0120000000e+05
    1.3099290663e-03    1.0120000000e+05
    1.3199141249e-03    1.0120000000e+05
    1.3299768325e-03    1.0120000000e+05
    1.3398753945e-03    1.0120000000e+05
    1.3498490443e-03    1.0120000000e+05
    1.3598988298e-03    1.0120000000e+05
    1.3697800459e-03    1.0120000000e+05
    1.3799868757e-03    1.0120000000e+05
    1.3897705358e-03    1.0120000000e+05
    1.3998820214e-03    1.0120000000e+05
    1.4098176034e-03    1.0120000000e+05
    1.4198295539e-03    1.0120000000e+05
    1.4299191535e-03    1.0120000000e+05
    1.4398260973e-03    1.0120000000e+05
    1.4498092933e-03    1.0120000000e+05
    1.4598700218e-03    1.0120000000e+05
    1.4697414590e-03    1.0120000000e+05
    1.4799587661e-03    1.0120000000e+05
    1.4899856178e-03    1.0120000000e+05
    1.4998161932e-03    1.0120000000e+05
    1.5099989250e-03    1.0120000000e+05
    1.5199839836e-03    1.0120000000e+05
    1.5297662467e-03    1.0120000000e+05
    1.5399064869e-03    1.0120000000e+05
    1.5498421853e-03    1.0120000000e+05
    1.5598554164e-03    1.0120000000e+05
    1.5699473443e-03    1.0120000000e+05
    1.5798276290e-03    1.0120000000e+05
    1.5897834674e-03    1.0120000000e+05
    1.5998100862e-03    1.0120000000e+05
    1.6099249478e-03    1.0120000000e+05
    1.6198201338e-03    1.0120000000e+05
    1.6297926195e-03    1.0120000000e+05
    1.6398445005e-03    1.0120000000e+05
    1.6499765916e-03    1.0120000000e+05
    1.6598795773e-03    1.0120000000e+05
    1.6698611435e-03    1.0120000000e+05
    1.6799225705e-03    1.0120000000e+05
    1.6897469759e-03    1.0120000000e+05
    1.6999697546e-03    1.0120000000e+05
    1.7099534161e-03    1.0120000000e+05
    1.7196916742e-03    1.0120000000e+05
    1.7298350576e-03    1.0120000000e+05
    1.7397308256e-03    1.0120000000e+05
    1.7497063382e-03    1.0120000000e+05
    1.7597628757e-03    1.0120000000e+05
    1.7699021846e-03    1.0120000000e+05
    1.7797838664e-03    1.0120000000e+05
    1.7897457583e-03    1.0120000000e+05
    1.7997884424e-03    1.0120000000e+05
    1.8099105218e-03    1.0120000000e+05
    1.8197691534e-03    1.0120000000e+05
    1.8297088100e-03    1.0120000000e+05
    1.8397308886e-03    1.0120000000e+05
    1.8498371355e-03    1.0120000000e+05
    1.8596636364e-03    1.0120000000e+05
    1.8699403154e-03    1.0120000000e+05
    1.8799343379e-03    1.0120000000e+05
    1.8896386027e-03    1.0120000000e+05
    1.8998008454e-03    1.0120000000e+05
    1.9096704200e-03    1.0120000000e+05
    1.9196234643e-03    1.0120000000e+05
    1.9296619575e-03    1.0120000000e+05
    1.9397875294e-03    1.0120000000e+05
    1.9499976188e-03    1.0120000000e+05
    1.9599052612e-03    1.0120000000e+05
    1.9698990509e-03    1.0120000000e+05
    1.9799806178e-03    1.0120000000e+05
    1.9897434395e-03    1.0120000000e+05
    1.9995905459e-03    1.0120000000e+05
    2.0099403337e-03    1.0120000000e+05
    2.0199660212e-03    1.0120000000e+05
    2.0296589937e-03    1.0120000000e+05
    2.0398639608e-03    1.0120000000e+05
    2.0497322548e-03    1.0120000000e+05
    2.0596829709e-03    1.0120000000e+05
    2.0696951542e-03    1.0120000000e+05
    2.0797604229e-03    1.0120000000e+05
    2.0898631774e-03    1.0120000000e+05
    2.0999961998e-03    1.0120000000e+05
    2.1097175777e-03    1.0120000000e+05
    2.1198955365e-03    1.0120000000e+05
    2.1296658088e-03    1.0120000000e+05
    2.1398670506e-03    1.0120000000e+05
    2.1496356931e-03    1.0120000000e+05
    2.1598653402e-03    1.0120000000e+05
    2.1696421318e-03    1.0120000000e+05
    2.1798501257e-03    1.0120000000e+05
    2.1896297112e-03    1.0120000000e+05
    2.1998349112e-03    1.0120000000e+05
    2.2096044850e-03    1.0120000000e+05
    2.2197905928e-03    1.0120000000e+05
    2.2299911361e-03    1.0120000000e+05
    2.2397399880e-03    1.0120000000e+05
    2.2499202751e-03    1.0120000000e+05
    2.2596581839e-03    1.0120000000e+05
    2.2698401008e-03    1.0120000000e+05
    2.2799950093e-03    1.0120000000e+05
    2.2897806484e-03    1.0120000000e+05
    2.2999451030e-03    1.0120000000e+05
    2.3096627556e-03    1.0120000000e+05
    2.3198311683e-03    1.0120000000e+05
    2.3296107538e-03    1.0120000000e+05
    2.3398550693e-03    1.0120000000e+05
    2.3496812209e-03    1.0120000000e+05
    2.3599590641e-03    1.0120000000e+05
    2.3697942961e-03    1.0120000000e+05
    2.3796423338e-03    1.0120000000e+05
    2.3899932858e-03    1.0120000000e+05
    2.3998927791e-03    1.0120000000e+05
    2.4098102003e-03    1.0120000000e+05
    2.4197420571e-03    1.0120000000e+05
    2.4296781048e-03    1.0120000000e+05
    2.4396139197e-03    1.0120000000e+05
    2.4499772117e-03    1.0120000000e+05
    2.4598969612e-03    1.0120000000e+05
    2.4698018096e-03    1.0120000000e+05
    2.4796733633e-03    1.0120000000e+05
    2.4899665732e-03    1.0120000000e+05
    2.4997773580e-03    1.0120000000e+05
    2.5099895429e-03    1.0120000000e+05
    2.5197057985e-03    1.0120000000e+05
    2.5298006367e-03    1.0120000000e+05
    2.5398195721e-03    1.0120000000e+05
    2.5497647002e-03    1.0120000000e+05
    2.5596367195e-03    1.0120000000e+05
    2.5698610116e-03    1.0120000000e+05
    2.5795868132e-03    1.0120000000e+05
    2.5896583684e-03    1.0120000000e+05
    2.5996565819e-03    1.0120000000e+05
    2.6099933311e-03    1.0120000000e+05
    2.6198425330e-03    1.0120000000e+05
    2.6296200231e-03    1.0120000000e+05
    2.6397292968e-03    1.0120000000e+05
    2.6497629005e-03    1.0120000000e+05
    2.6597210672e-03    1.0120000000e+05
    2.6699996088e-03    1.0120000000e+05
    2.6798080653e-03    1.0120000000e+05
    2.6899317745e-03    1.0120000000e+05
    2.6999786496e-03    1.0120000000e+05
    2.7099496219e-03    1.0120000000e+05
    2.7198449243e-03    1.0120000000e+05
    2.7296661865e-03    1.0120000000e+05
    2.7397871017e-03    1.0120000000e+05
    2.7498293202e-03    1.0120000000e+05
    2.7597940061e-03    1.0120000000e+05
    2.7696813922e-03    1.0120000000e+05
    2.7798546944e-03    1.0120000000e+05
    2.7899467386e-03    1.0120000000e+05
    2.7999586891e-03    1.0120000000e+05
    2.8098910116e-03    1.0120000000e+05
    2.8197444044e-03    1.0120000000e+05
    2.8298674151e-03    1.0120000000e+05
    2.8399070725e-03    1.0120000000e+05
    2.8498638421e-03    1.0120000000e+05
    2.8597393539e-03    1.0120000000e+05
    2.8698698152e-03    1.0120000000e+05
    2.8799141292e-03    1.0120000000e+05
    2.8898727614e-03    1.0120000000e+05
    2.8997466434e-03    1.0120000000e+05
    2.9098603409e-03    1.0120000000e+05
    2.9198839329e-03    1.0120000000e+05
    2.9298185837e-03    1.0120000000e+05
    2.9399804771e-03    1.0120000000e+05
    2.9497351497e-03    1.0120000000e+05
    2.9597124085e-03    1.0120000000e+05
    2.9699036386e-03    1.0120000000e+05
    2.9799956828e-03    1.0120000000e+05
    2.9899890069e-03    1.0120000000e+05
    2.9998840764e-03    1.0120000000e+05
    3.0099763535e-03    1.0120000000e+05
    3.0199650209e-03    1.0120000000e+05
    3.0298500787e-03    1.0120000000e+05
    3.0399172101e-03    1.0120000000e+05
    3.0498744454e-03    1.0120000000e+05
    3.0597217847e-03    1.0120000000e+05
    3.0697358306e-03    1.0120000000e+05
    3.0799068045e-03    1.0120000000e+05
    3.0899546109e-03    1.0120000000e+05
    3.0998787843e-03    1.0120000000e+05
    3.1099417247e-03    1.0120000000e+05
    3.1198733486e-03    1.0120000000e+05
    3.1299286056e-03    1.0120000000e+05
    3.1398436986e-03    1.0120000000e+05
    3.1498663593e-03    1.0120000000e+05
    3.1599842478e-03    1.0120000000e+05
    3.1699428800e-03    1.0120000000e+05
    3.1799781136e-03    1.0120000000e+05
    3.1898422167e-03    1.0120000000e+05
    3.1999903731e-03    1.0120000000e+05
    3.2099452801e-03    1.0120000000e+05
    3.2199232373e-03    1.0120000000e+05
    3.2299056184e-03    1.0120000000e+05
    3.2398730982e-03    1.0120000000e+05
    3.2498042565e-03    1.0120000000e+05
    3.2598741818e-03    1.0120000000e+05
    3.2698460855e-03    1.0120000000e+05
    3.2798754983e-03    1.0120000000e+05
    3.2899067737e-03    1.0120000000e+05
    3.2998749521e-03    1.0120000000e+05
    3.3098645508e-03    1.0120000000e+05
    3.3199016470e-03    1.0120000000e+05
    3.3299250063e-03    1.0120000000e+05
    3.3399721142e-03    1.0120000000e+05
    3.3499586862e-03    1.0120000000e+05
    3.3598993905e-03    1.0120000000e+05
    3.3699960914e-03    1.0120000000e+05
    3.3799593803e-03    1.0120000000e+05
    3.3898986876e-03    1.0120000000e+05
    3.3999988809e-03    1.0120000000e+05
    3.4098888282e-03    1.0120000000e+05
    3.4198362846e-03    1.0120000000e+05
    3.4298996907e-03    1.0120000000e+05
    3.4399037249e-03    1.0120000000e+05
    3.4499564208e-03    1.0120000000e+05
    3.4599350765e-03    1.0120000000e+05
    3.4698236268e-03    1.0120000000e+05
    3.4798441920e-03    1.0120000000e+05
    3.4898284357e-03    1.0120000000e+05
    3.4998646006e-03    1.0120000000e+05
    3.5098446533e-03    1.0120000000e+05
    3.5199099220e-03    1.0120000000e+05
    3.5298846196e-03    1.0120000000e+05
    3.5399345215e-03    1.0120000000e+05
    3.5498787183e-03    1.0120000000e+05
    3.5598906688e-03    1.0120000000e+05
    3.5699717700e-03    1.0120000000e+05
    3.5799255129e-03    1.0120000000e+05
    3.5899325740e-03    1.0120000000e+05
    3.5998083185e-03    1.0120000000e+05
    3.6099404097e-03    1.0120000000e+05
    3.6199509632e-03    1.0120000000e+05
    3.6299864296e-03    1.0120000000e+05
    3.6398791708e-03    1.0120000000e+05
    3.6498096306e-03    1.0120000000e+05
    3.6598080769e-03    1.0120000000e+05
    3.6698495969e-03    1.0120000000e+05
    3.6799197551e-03    1.0120000000e+05
    3.6898497492e-03    1.0120000000e+05
    3.6998002324e-03    1.0120000000e+05
    3.7098084576e-03    1.0120000000e+05
    3.7198511418e-03    1.0120000000e+05
    3.7299343385e-03    1.0120000000e+05
    3.7398422137e-03    1.0120000000e+05
    3.7499992177e-03    1.0120000000e+05
    3.7599967327e-03    1.0120000000e+05
    3.7699954119e-03    1.0120000000e+05
    3.7798404228e-03    1.0120000000e+05
    3.7899324670e-03    1.0120000000e+05
    3.7998219486e-03    1.0120000000e+05
    3.8097789511e-03    1.0120000000e+05
    3.8199599367e-03    1.0120000000e+05
    3.8299660664e-03    1.0120000000e+05
    3.8397882599e-03    1.0120000000e+05
    3.8498148788e-03    1.0120000000e+05
    3.8599544205e-03    1.0120000000e+05
    3.8698159624e-03    1.0120000000e+05
    3.8799857721e-03    1.0120000000e+05
    3.8899583742e-03    1.0120000000e+05
    3.8999039680e-03    1.0120000000e+05
    3.9099599235e-03    1.0120000000e+05
    3.9199762978e-03    1.0120000000e+05
    3.9297919720e-03    1.0120000000e+05
    3.9399135858e-03    1.0120000000e+05
    3.9497693069e-03    1.0120000000e+05
    3.9599318989e-03    1.0120000000e+05
    3.9698695764e-03    1.0120000000e+05
    3.9798202924e-03    1.0120000000e+05
    3.9898306131e-03    1.0120000000e+05
    3.9998390712e-03    1.0120000000e+05
    4.0098791942e-03    1.0120000000e+05
    4.0199556388e-03    1.0120000000e+05
    4.0297997184e-03    1.0120000000e+05
    4.0399134159e-03    1.0120000000e+05
    4.0498101152e-03    1.0120000000e+05
    4.0599661879e-03    1.0120000000e+05
    4.0699015372e-03    1.0120000000e+05
    4.0798517875e-03    1.0120000000e+05
    4.0898239240e-03    1.0120000000e+05
    4.0998114273e-03    1.0120000000e+05
    4.1098110378e-03    1.0120000000e+05
    4.1198278777e-03    1.0120000000e+05
    4.1298572905e-03    1.0120000000e+05
    4.1398978792e-03    1.0120000000e+05
    4.1499491781e-03    1.0120000000e+05
    4.1597648524e-03    1.0120000000e+05
    4.1698310524e-03    1.0120000000e+05
    4.1799042374e-03    1.0120000000e+05
    4.1899816133e-03    1.0120000000e+05
    4.1998154484e-03    1.0120000000e+05
    4.2098965496e-03    1.0120000000e+05
    4.2199776508e-03    1.0120000000e+05
    4.2298133485e-03    1.0120000000e+05
    4.2398944497e-03    1.0120000000e+05
    4.2499755509e-03    1.0120000000e+05
    4.2598103173e-03    1.0120000000e+05
    4.2698904872e-03    1.0120000000e+05
    4.2799697258e-03    1.0120000000e+05
    4.2898021638e-03    1.0120000000e+05
    4.2998800054e-03    1.0120000000e+05
    4.3099555187e-03    1.0120000000e+05
    4.3197837658e-03    1.0120000000e+05
    4.3298597448e-03    1.0120000000e+05
    4.3399338610e-03    1.0120000000e+05
    4.3497621082e-03    1.0120000000e+05
    4.3598432094e-03    1.0120000000e+05
    4.3699280359e-03    1.0120000000e+05
    4.3797669932e-03    1.0120000000e+05
    4.3898588046e-03    1.0120000000e+05
    4.3999627233e-03    1.0120000000e+05
    4.4098240323e-03    1.0120000000e+05
    4.4199335389e-03    1.0120000000e+05
    4.4298102148e-03    1.0120000000e+05
    4.4399439357e-03    1.0120000000e+05
    4.4498299249e-03    1.0120000000e+05
    4.4599734247e-03    1.0120000000e+05
    4.4698864222e-03    1.0120000000e+05
    4.4797984883e-03    1.0120000000e+05
    4.4899634086e-03    1.0120000000e+05
    4.4998968951e-03    1.0120000000e+05
    4.5098420233e-03    1.0120000000e+05
    4.5197820291e-03    1.0120000000e+05
    4.5299818739e-03    1.0120000000e+05
    4.5399502851e-03    1.0120000000e+05
    4.5499219559e-03    1.0120000000e+05
    4.5598880388e-03    1.0120000000e+05
    4.5698783360e-03    1.0120000000e+05
    4.5798774809e-03    1.0120000000e+05
    4.5898724347e-03    1.0120000000e+05
    4.5998734422e-03    1.0120000000e+05
    4.6099009924e-03    1.0120000000e+05
    4.6199238859e-03    1.0120000000e+05
    4.6299491078e-03    1.0120000000e+05
    4.6399845742e-03    1.0120000000e+05
    4.6497927979e-03    1.0120000000e+05
    4.6598343179e-03    1.0120000000e+05
    4.6698888764e-03    1.0120000000e+05
    4.6799643897e-03    1.0120000000e+05
    4.6897921711e-03    1.0120000000e+05
    4.6998565085e-03    1.0120000000e+05
    4.7099511139e-03    1.0120000000e+05
    4.7198110260e-03    1.0120000000e+05
    4.7299112193e-03    1.0120000000e+05
    4.7397487797e-03    1.0120000000e+05
    4.7498783097e-03    1.0120000000e+05
    4.7597638331e-03    1.0120000000e+05
    4.7698770650e-03    1.0120000000e+05
    4.7799944878e-03    1.0120000000e+05
    4.7898981720e-03    1.0120000000e+05
    4.7998018563e-03    1.0120000000e+05
    4.8099500127e-03    1.0120000000e+05
    4.8198467121e-03    1.0120000000e+05
    4.8297676258e-03    1.0120000000e+05
    4.8399469815e-03    1.0120000000e+05
    4.8498739488e-03    1.0120000000e+05
    4.8598106951e-03    1.0120000000e+05
    4.8697474413e-03    1.0120000000e+05
    4.8799500801e-03    1.0120000000e+05
    4.8899129033e-03    1.0120000000e+05
    4.8998752609e-03    1.0120000000e+05
    4.9098357558e-03    1.0120000000e+05
    4.9197999761e-03    1.0120000000e+05
    4.9297926016e-03    1.0120000000e+05
    4.9397861585e-03    1.0120000000e+05
    4.9497685395e-03    1.0120000000e+05
    4.9597565085e-03    1.0120000000e+05
    4.9697663635e-03    1.0120000000e+05
    4.9797864631e-03    1.0120000000e+05
    4.9897907302e-03    1.0120000000e+05
    4.9997982569e-03    1.0120000000e+05
    5.0098234788e-03    1.0120000000e+05
    5.0198640674e-03    1.0120000000e+05
    5.0299032591e-03    1.0120000000e+05
    5.0399312750e-03    1.0120000000e+05
    5.0499732606e-03    1.0120000000e+05
    5.0597717054e-03    1.0461797656e+05
    5.0698355772e-03    2.7080862500e+05
    5.0798952579e-03    2.6893625000e+05
    5.0899521448e-03    2.6748884375e+05
    5.0997626968e-03    2.6608512500e+05
    5.1098475233e-03    2.6465634375e+05
    5.1199276932e-03    2.6324203125e+05
    5.1297475584e-03    2.6187748438e+05
    5.1398347132e-03    2.6048912500e+05
    5.1499339752e-03    2.5911235938e+05
    5.1597706042e-03    2.5778393750e+05
    5.1698586904e-03    2.5643485938e+05
    5.1799579524e-03    2.5509712500e+05
    5.1898211241e-03    2.5380331250e+05
    5.1999487914e-03    2.5248737500e+05
    5.2098133601e-03    2.5121776562e+05
    5.2199251950e-03    2.4992862500e+05
    5.2297832444e-03    2.4868362500e+05
    5.2399123088e-03    2.4741623438e+05
    5.2497922443e-03    2.4619154688e+05
    5.2599357441e-03    2.4494570312e+05
    5.2698161453e-03    2.4374343750e+05
    5.2799540572e-03    2.4252132812e+05
    5.2898311988e-03    2.4134179688e+05
    5.2999667823e-03    2.4014242188e+05
    5.3098415956e-03    2.3898454688e+05
    5.3199795075e-03    2.3780645312e+05
    5.3298645653e-03    2.3666835938e+05
    5.3397533484e-03    2.3554035938e+05
    5.3499005735e-03    2.3439354688e+05
    5.3597860970e-03    2.3328643750e+05
    5.3699305281e-03    2.3216045312e+05
    5.3798137233e-03    2.3107329688e+05
    5.3899572231e-03    2.2996781250e+05
    5.3998404182e-03    2.2890054688e+05
    5.4099848494e-03    2.2781470312e+05
    5.4198685102e-03    2.2676579688e+05
    5.4297521710e-03    2.2572587500e+05
    5.4398956709e-03    2.2466829688e+05
    5.4497788660e-03    2.2364743750e+05
    5.4599219002e-03    2.2260923438e+05
    5.4698046297e-03    2.2160632812e+05
    5.4799471982e-03    2.2058567188e+05
    5.4898289964e-03    2.1959975000e+05
    5.4999706335e-03    2.1859718750e+05
    5.5098519661e-03    2.1762945312e+05
    5.5199926719e-03    2.1664510938e+05
    5.5298730731e-03    2.1569401562e+05
    5.5397534743e-03    2.1475057812e+05
    5.5498927832e-03    2.1379057812e+05
    5.5597717874e-03    2.1286345312e+05
    5.5699129589e-03    2.1192029688e+05
    5.5797947571e-03    2.1100935938e+05
    5.5899363942e-03    2.1008232812e+05
    5.5998228490e-03    2.0918620312e+05
    5.6099751964e-03    2.0827354688e+05
    5.6198700331e-03    2.0739145312e+05
    5.6297653355e-03    2.0651679688e+05
    5.6399200112e-03    2.0562692188e+05
    5.6498125196e-03    2.0476742188e+05
    5.6599644013e-03    2.0389289062e+05
    5.6698555127e-03    2.0304807812e+05
    5.6797456928e-03    2.0221029688e+05
    5.6898971088e-03    2.0135748438e+05
    5.6997933425e-03    2.0053300000e+05
    5.7099526748e-03    1.9969360938e+05
    5.7198498398e-03    1.9888264062e+05
    5.7297460735e-03    1.9807843750e+05
    5.7399021462e-03    1.9726001562e+05
    5.7497974485e-03    1.9646920312e+05
    5.7599521242e-03    1.9566432812e+05
    5.7698478922e-03    1.9488642188e+05
    5.7797478512e-03    1.9411443750e+05
    5.7899076492e-03    1.9332864062e+05
    5.7998057455e-03    1.9256935938e+05
    5.8099636808e-03    1.9179650000e+05
    5.8198594488e-03    1.9104970312e+05
    5.8297584765e-03    1.9030868750e+05
    5.8399229310e-03    1.8955395312e+05
    5.8498252183e-03    1.8882451562e+05
    5.8599873446e-03    1.8808187500e+05
    5.8698882349e-03    1.8736406250e+05
    5.8797891252e-03    1.8665195312e+05
    5.8899549767e-03    1.8592681250e+05
    5.8998605236e-03    1.8522606250e+05
    5.9097646736e-03    1.8453089062e+05
    5.9199286625e-03    1.8382292188e+05
    5.9298323467e-03    1.8313832812e+05
    5.9397397563e-03    1.8245875000e+05
    5.9499079362e-03    1.8176695312e+05
    5.9598144144e-03    1.8109850000e+05
    5.9699807316e-03    1.8041798438e+05
    5.9798886068e-03    1.7975989062e+05
    5.9897983447e-03    1.7910664062e+05
    5.9999679215e-03    1.7844151562e+05
    6.0098762624e-03    1.7779850000e+05
    6.0197841376e-03    1.7716031250e+05
    6.0299565084e-03    1.7651007812e+05
    6.0398671776e-03    1.7588151562e+05
    6.0497773811e-03    1.7525787500e+05
    6.0599474236e-03    1.7462290625e+05
    6.0698594898e-03    1.7400876562e+05
    6.0797715560e-03    1.7339920312e+05
    6.0899434611e-03    1.7277834375e+05
    6.0998545960e-03    1.7217806250e+05
    6.1097671278e-03    1.7158225000e+05
    6.1199399643e-03    1.7097545312e+05
    6.1298515648e-03    1.7038867188e+05
    6.1397636309e-03    1.6980623438e+05
    6.1499364674e-03    1.6921293750e+05
    6.1598485336e-03    1.6863923438e+05
    6.1697601341e-03    1.6806982812e+05
    6.1799325049e-03    1.6748981250e+05
    6.1898441054e-03    1.6692890625e+05
    6.1997552402e-03    1.6637214062e+05
    6.2099271454e-03    1.6580493750e+05
    6.2198382802e-03    1.6525634375e+05
    6.2297489494e-03    1.6471178125e+05
    6.2399203889e-03    1.6415709375e+05
    6.2498305924e-03    1.6362067188e+05
    6.2597407959e-03    1.6308814062e+05
    6.2699113041e-03    1.6254553125e+05
    6.2798215076e-03    1.6202057812e+05
    6.2899934128e-03    1.6148567188e+05
    6.2999050133e-03    1.6096842188e+05
    6.3098152168e-03    1.6045514062e+05
    6.3199857250e-03    1.5993235938e+05
    6.3298949972e-03    1.5942670312e+05
    6.3398038037e-03    1.5892448438e+05
    6.3499738462e-03    1.5841257812e+05
    6.3598835841e-03    1.5791723438e+05
    6.3697942533e-03    1.5742540625e+05
    6.3799656928e-03    1.5692439062e+05
    6.3898754306e-03    1.5643984375e+05
    6.3997851685e-03    1.5595870312e+05
    6.4099556766e-03    1.5546831250e+05
    6.4198649488e-03    1.5499381250e+05
    6.4297737554e-03    1.5452265625e+05
    6.4399433322e-03    1.5404262500e+05
    6.4498516731e-03    1.5357831250e+05
    6.4597595483e-03    1.5311725000e+05
    6.4699277282e-03    1.5264739062e+05
    6.4798351377e-03    1.5219278125e+05
    6.4897420816e-03    1.5174128125e+05
    6.4999093302e-03    1.5128117188e+05
    6.5098162740e-03    1.5083604688e+05
    6.5199849196e-03    1.5038240625e+05
    6.5298937261e-03    1.4994342188e+05
    6.5398020670e-03    1.4950737500e+05
    6.5499702469e-03    1.4906296875e+05
    6.5598771907e-03    1.4863300000e+05
    6.5697832033e-03    1.4820603125e+05
    6.5799499862e-03    1.4777085938e+05
    6.5898559988e-03    1.4734973438e+05
    6.5997624770e-03    1.4693143750e+05
    6.6099306569e-03    1.4650506250e+05
    6.6198376007e-03    1.4609251562e+05
    6.6297436133e-03    1.4568275000e+05
    6.6399103962e-03    1.4526507812e+05
    6.6498159431e-03    1.4486089062e+05
    6.6599817947e-03    1.4444887500e+05
    6.6698873416e-03    1.4405010938e+05
    6.6797933541e-03    1.4365403125e+05
    6.6899592057e-03    1.4325028125e+05
    6.6998638213e-03    1.4285956250e+05
    6.7097684368e-03    1.4247145312e+05
    6.7199338228e-03    1.4207581250e+05
    6.7298379727e-03    1.4169292188e+05
    6.7397416569e-03    1.4131254688e+05
    6.7499061115e-03    1.4092471875e+05
    6.7598093301e-03    1.4054934375e+05
    6.7699728534e-03    1.4016675000e+05
    6.7798756063e-03    1.3979656250e+05
    6.7897783592e-03    1.3942884375e+05
    6.7999414168e-03    1.3905381250e+05
    6.8098446354e-03    1.3869059375e+05
    6.8197483197e-03    1.3832964062e+05
    6.8299123086e-03    1.3796181250e+05
    6.8398178555e-03    1.3760585938e+05
    6.8499883637e-03    1.3724282812e+05
    6.8599013612e-03    1.3689112500e+05
    6.8698148243e-03    1.3654153125e+05
    6.8799951114e-03    1.3618489062e+05
    6.8899244070e-03    1.3583935938e+05
    6.8998648785e-03    1.3549578125e+05
    6.9098076783e-03    1.3515435938e+05
    6.9197569974e-03    1.3481487500e+05
    6.9299810566e-03    1.3446825000e+05
    6.9399522617e-03    1.3413235938e+05
    6.9499355741e-03    1.3379826562e+05
    6.9599207491e-03    1.3346620312e+05
    6.9699222222e-03    1.3313579688e+05
    6.9799325429e-03    1.3280710938e+05
    6.9899512455e-03    1.3248029688e+05
    6.9999829866e-03    1.3215515625e+05
    7.0097553544e-03    1.3184039062e+05
    7.0198015310e-03    1.3151882812e+05
    7.0298565552e-03    1.3119893750e+05
    7.0399180986e-03    1.3088096094e+05
    7.0499908179e-03    1.3056469531e+05
    7.0598032326e-03    1.3025862500e+05
    7.0698861964e-03    1.2994609375e+05
    7.0799826644e-03    1.2963505469e+05
    7.0898220874e-03    1.2933371094e+05
    7.0999376476e-03    1.2902572656e+05
    7.1097943000e-03    1.2872752344e+05
    7.1199191734e-03    1.2842321875e+05
    7.1297902614e-03    1.2812859375e+05
    7.1399356239e-03    1.2782771094e+05
    7.1498178877e-03    1.2753639844e+05
    7.1599790826e-03    1.2723860156e+05
    7.1698692627e-03    1.2695044531e+05
    7.1797780693e-03    1.2666355469e+05
    7.1899616159e-03    1.2637050000e+05
    7.1998778731e-03    1.2608696875e+05
    7.2098085657e-03    1.2580477344e+05
    7.2197355330e-03    1.2552446094e+05
    7.2299442254e-03    1.2523799219e+05
    7.2398954071e-03    1.2496034375e+05
    7.2498414665e-03    1.2468446094e+05
    7.2598042898e-03    1.2440977344e+05
    7.2697689757e-03    1.2413677344e+05
    7.2797373869e-03    1.2386541406e+05
    7.2899926454e-03    1.2358796094e+05
    7.2999717668e-03    1.2331958594e+05
    7.3099643923e-03    1.2305243750e+05
    7.3199677281e-03    1.2278660156e+05
    7.3299696669e-03    1.2252241406e+05
    7.3399841785e-03    1.2225947656e+05
    7.3499949649e-03    1.2199824219e+05
    7.3597384617e-03    1.2174553125e+05
    7.3697729968e-03    1.2148686719e+05
    7.3798033409e-03    1.2122991406e+05
    7.3898443952e-03    1.2097421094e+05
    7.3998891748e-03    1.2071983594e+05
    7.4099279009e-03    1.2046696094e+05
    7.4199861847e-03    1.2021505469e+05
    7.4297748506e-03    1.1997132031e+05
    7.4398410507e-03    1.1972227344e+05
    7.4499165639e-03    1.1947467969e+05
    7.4599860236e-03    1.1922896094e+05
    7.4697961099e-03    1.1899124219e+05
    7.4798874557e-03    1.1874833594e+05
    7.4899778701e-03    1.1850684375e+05
    7.4998042546e-03    1.1827257031e+05
    7.5099030510e-03    1.1803231250e+05
    7.5197392143e-03    1.1779874219e+05
    7.5298561715e-03    1.1755944531e+05
    7.5399740599e-03    1.1732206250e+05
    7.5498255901e-03    1.1709361719e+05
    7.5599509291e-03    1.1686200000e+05
    7.5698047876e-03    1.1663943750e+05
    7.5799426995e-03    1.1641241406e+05
    7.5898128562e-03    1.1619196875e+05
    7.5999610126e-03    1.1596450000e+05
    7.6098400168e-03    1.1574153906e+05
    7.6199965551e-03    1.1551096875e+05
    7.6298834756e-03    1.1528634375e+05
    7.6397745870e-03    1.1506315625e+05
    7.6499488205e-03    1.1483700781e+05
    7.6598539017e-03    1.1462156250e+05
    7.6697617769e-03    1.1441135156e+05
    7.6799420640e-03    1.1420043750e+05
    7.6898508705e-03    1.1399839844e+05
    7.6997661963e-03    1.1379663281e+05
    7.7099632472e-03    1.1358650781e+05
    7.7198902145e-03    1.1337758594e+05
    7.7298255637e-03    1.1316435156e+05
    7.7397637069e-03    1.1294872656e+05
    7.7499779873e-03    1.1272710156e+05
    7.7599189244e-03    1.1251358594e+05
    7.7698668465e-03    1.1230347656e+05
    7.7798222192e-03    1.1209767969e+05
    7.7897771262e-03    1.1189671875e+05
    7.7997390181e-03    1.1170049219e+05
    7.8099831007e-03    1.1150335156e+05
    7.8199533746e-03    1.1131511719e+05
    7.8299231827e-03    1.1112893750e+05
    7.8399013728e-03    1.1094285156e+05
    7.8498842195e-03    1.1075506250e+05
    7.8598698601e-03    1.1056441406e+05
    7.8698601574e-03    1.1037078125e+05
    7.8798579052e-03    1.1017500781e+05
    7.8898556530e-03    1.0997866406e+05
    7.8998561949e-03    1.0978289844e+05
    7.9098613933e-03    1.0958830469e+05
    7.9198749736e-03    1.0939500781e+05
    7.9298922792e-03    1.0920311719e+05
    7.9399086535e-03    1.0901289844e+05
    7.9499315470e-03    1.0882452344e+05
    7.9599600285e-03    1.0863831250e+05
    7.9699866474e-03    1.0845453125e+05
    7.9797403887e-03    1.0827807031e+05
    7.9897837713e-03    1.0809871094e+05
    7.9998308793e-03    1.0792155469e+05
    8.0098798499e-03    1.0774624219e+05
    8.0199288204e-03    1.0757205469e+05
    8.0299843103e-03    1.0739809375e+05
    8.0397641286e-03    1.0722872656e+05
    8.0498242751e-03    1.0705418750e+05
    8.0598937348e-03    1.0687931250e+05
    8.0699706450e-03    1.0670450781e+05
    8.0797644332e-03    1.0653527344e+05
    8.0898413435e-03    1.0636228125e+05
    8.0999229103e-03    1.0619060156e+05
    8.1097325310e-03    1.0602491406e+05
    8.1198271364e-03    1.0585572656e+05
    8.1299226731e-03    1.0568763281e+05
    8.1397444010e-03    1.0552500000e+05
    8.1498483196e-03    1.0535841406e+05
    8.1599522382e-03    1.0519247656e+05
    8.1697832793e-03    1.0503165625e+05
    8.1799030304e-03    1.0486700781e+05
    8.1897443160e-03    1.0470785156e+05
    8.1998705864e-03    1.0454510156e+05
    8.2099996507e-03    1.0438309375e+05
    8.2198539749e-03    1.0422621094e+05
    8.2299858332e-03    1.0406578906e+05
    8.2398420200e-03    1.0391078125e+05
    8.2499906421e-03    1.0375216406e+05
    8.2598607987e-03    1.0359865625e+05
    8.2697318867e-03    1.0344578125e+05
    8.2798916847e-03    1.0328922656e+05
    8.2897748798e-03    1.0313787500e+05
    8.2999439910e-03    1.0298316406e+05
    8.3098290488e-03    1.0283372656e+05
    8.3197178319e-03    1.0268500000e+05
    8.3299018443e-03    1.0253253125e+05
    8.3398027346e-03    1.0238511719e+05
    8.3499886096e-03    1.0223439844e+05
    8.3599025384e-03    1.0208862500e+05
    8.3698183298e-03    1.0194362500e+05
    8.3797359839e-03    1.0179933594e+05
    8.3899386227e-03    1.0165167969e+05
    8.3998646587e-03    1.0150890625e+05
    8.4098009393e-03    1.0136682031e+05
    8.4197297692e-03    1.0122561719e+05
    8.4299528971e-03    1.0108097656e+05
    8.4399031475e-03    1.0094089844e+05
    8.4498496726e-03    1.0080153906e+05
    8.4598008543e-03    1.0066280469e+05
    8.4697604179e-03    1.0052450000e+05
    8.4797265008e-03    1.0038650781e+05
    8.4899812937e-03    1.0024485156e+05
    8.4999436513e-03    1.0010750781e+05
    8.5099199787e-03    9.9970320312e+04
    8.5199037567e-03    9.9833335938e+04
    8.5298828781e-03    9.9696664062e+04
    8.5398713127e-03    9.9560242188e+04
    8.5498699918e-03    9.9424210938e+04
    8.5598714650e-03    9.9288945312e+04
    8.5698729381e-03    9.9154781250e+04
    8.5798790678e-03    9.9021976562e+04
    8.5898982361e-03    9.8890648438e+04
    8.5999248549e-03    9.8760992188e+04
    8.6099496111e-03    9.8633257812e+04
    8.6199771613e-03    9.8507351562e+04
    8.6297215894e-03    9.8386664062e+04
    8.6397454143e-03    9.8263804688e+04
    8.6497776210e-03    9.8141406250e+04
    8.6598144844e-03    9.8018664062e+04
    8.6698625237e-03    9.7894804688e+04
    8.6799133569e-03    9.7769656250e+04
    8.6899632588e-03    9.7643429688e+04
    8.6997300386e-03    9.7520164062e+04
    8.7097799405e-03    9.7393218750e+04
    8.7198261172e-03    9.7266906250e+04
    8.7298871949e-03    9.7141648438e+04
    8.7399575859e-03    9.7017882812e+04
    8.7497429922e-03    9.6899250000e+04
    8.7598180398e-03    9.6778492188e+04
    8.7698921561e-03    9.6659039062e+04
    8.7799737230e-03    9.6540804688e+04
    8.7897656485e-03    9.6427070312e+04
    8.7998425588e-03    9.6310773438e+04
    8.8099390268e-03    9.6194773438e+04
    8.8197607547e-03    9.6082664062e+04
    8.8298721239e-03    9.5968335938e+04
    8.8399983943e-03    9.5854750000e+04
    8.8498396799e-03    9.5744468750e+04
    8.8599734008e-03    9.5630281250e+04
    8.8698156178e-03    9.5518562500e+04
    8.8799465448e-03    9.5402976562e+04
    8.8897868991e-03    9.5290398438e+04
    8.8999159634e-03    9.5174375000e+04
    8.9097544551e-03    9.5061929688e+04
    8.9198928326e-03    9.4947164062e+04
    8.9297480881e-03    9.4837648438e+04
    8.9398957789e-03    9.4727726562e+04
    8.9497519657e-03    9.4623726562e+04
    8.9598940685e-03    9.4518851562e+04
    8.9697474614e-03    9.4418007812e+04
    8.9798886329e-03    9.4314093750e+04
    8.9897420257e-03    9.4212101562e+04
    8.9998897165e-03    9.4105398438e+04
    9.0097486973e-03    9.4000023438e+04
    9.0198991820e-03    9.3890335938e+04
    9.0297581628e-03    9.3783492188e+04
    9.0399058536e-03    9.3674226562e+04
    9.0497629717e-03    9.3569679688e+04
    9.0599097311e-03    9.3464414062e+04
    9.0697649866e-03    9.3364773438e+04
    9.0799173340e-03    9.3264554688e+04
    9.0897846967e-03    9.3168929688e+04
    9.0999435633e-03    9.3071460938e+04
    9.1098099947e-03    9.2976789062e+04
    9.1199669987e-03    9.2878351562e+04
    9.1298371553e-03    9.2781101562e+04
    9.1397101060e-03    9.2682148438e+04
    9.1498689726e-03    9.2579117188e+04
    9.1597475111e-03    9.2478820312e+04
    9.1699194163e-03    9.2376554688e+04
    9.1797970235e-03    9.2279070312e+04
    9.1899670660e-03    9.2181101562e+04
    9.1998456046e-03    9.2088500000e+04
    9.2097269371e-03    9.1998210938e+04
    9.2199025676e-03    9.1906992188e+04
    9.2297922820e-03    9.1818773438e+04
    9.2399818823e-03    9.1726757812e+04
    9.2498837039e-03    9.1635148438e+04
    9.2597873881e-03    9.1541164062e+04
    9.2699807137e-03    9.1442906250e+04
    9.2798806727e-03    9.1347468750e+04
    9.2897787690e-03    9.1253476562e+04
    9.2999674380e-03    9.1159398438e+04
    9.3098627403e-03    9.1071156250e+04
    9.3197589740e-03    9.0985976562e+04
    9.3299457803e-03    9.0900468750e+04
    9.3398410827e-03    9.0817757812e+04
    9.3497373164e-03    9.0733648438e+04
    9.3599250540e-03    9.0644492188e+04
    9.3698222190e-03    9.0555335938e+04
    9.3797184527e-03    9.0464656250e+04
    9.3899071217e-03    9.0371398438e+04
    9.3998042867e-03    9.0282539062e+04
    9.4099929556e-03    9.0194179688e+04
    9.4198891893e-03    9.0111757812e+04
    9.4297835603e-03    9.0032125000e+04
    9.4399703667e-03    8.9951570312e+04
    9.4498656690e-03    8.9872851562e+04
    9.4597619027e-03    8.9792148438e+04
    9.4699505717e-03    8.9706367188e+04
    9.4798514619e-03    8.9620882812e+04
    9.4897560775e-03    8.9534664062e+04
    9.4999512658e-03    8.9446976562e+04
    9.5098586753e-03    8.9364289062e+04
    9.5197726041e-03    8.9284843750e+04
    9.5299808308e-03    8.9206281250e+04
    9.5398984849e-03    8.9131882812e+04
    9.5498207957e-03    8.9057460938e+04
    9.5597533509e-03    8.8981062500e+04
    9.5699904487e-03    8.8899343750e+04
    9.5799285918e-03    8.8817507812e+04
    9.5898807049e-03    8.8734718750e+04
    9.5998439938e-03    8.8653148438e+04
    9.6098119393e-03    8.8574539062e+04
    9.6197873354e-03    8.8499429688e+04
    9.6297748387e-03    8.8427054688e+04
    9.6397772431e-03    8.8355789062e+04
    9.6497843042e-03    8.8283835938e+04
    9.6597932279e-03    8.8209656250e+04
    9.6698086709e-03    8.8132750000e+04
    9.6798436716e-03    8.8053789062e+04
    9.6898898482e-03    8.7974687500e+04
    9.6999397501e-03    8.7897507812e+04
    9.7097093239e-03    8.7825585938e+04
    9.7197825089e-03    8.7754679688e+04
    9.7298584878e-03    8.7685882812e+04
    9.7399363294e-03    8.7617226562e+04
    9.7497282550e-03    8.7548960938e+04
    9.7598358989e-03    8.7475914062e+04
    9.7699537873e-03    8.7400585938e+04
    9.7797755152e-03    8.7326843750e+04
    9.7899036482e-03    8.7252195312e+04
    9.7997505218e-03    8.7182492188e+04
    9.8099019378e-03    8.7113843750e+04
    9.8197646439e-03    8.7049179688e+04
    9.8299374804e-03    8.6982687500e+04
    9.8398197442e-03    8.6916687500e+04
    9.8497038707e-03    8.6848625000e+04
    9.8598850891e-03    8.6776765625e+04
    9.8697692156e-03    8.6706546875e+04
    9.8799625412e-03    8.6635343750e+04
    9.8898550496e-03    8.6568671875e+04
    9.8997540772e-03    8.6504609375e+04
    9.9099688232e-03    8.6440250000e+04
    9.9198892713e-03    8.6377781250e+04
    9.9298143759e-03    8.6313968750e+04
    9.9397422746e-03    8.6248437500e+04
    9.9499812350e-03    8.6179656250e+04
    9.9599743262e-03    8.6112554688e+04
    9.9697671831e-03    8.6048054688e+04
    9.9797127768e-03    8.5984609375e+04
    9.9898539484e-03    8.5922000000e+04
    9.9998917431e-03    8.5861234375e+04
    1.0009816848e-02    8.5801015625e+04
    1.0019952431e-02    8.5738273438e+04
    1.0029952042e-02    8.5674859375e+04
    1.0039793327e-02    8.5611695312e+04
    1.0049815290e-02    8.5547898438e+04
    1.0059647262e-02    8.5486898438e+04
    1.0069644079e-02    8.5426882812e+04
    1.0079802014e-02    8.5367406250e+04
    1.0089736432e-02    8.5309546875e+04
    1.0099817067e-02    8.5250039062e+04
    1.0109649040e-02    8.5190906250e+04
    1.0119615123e-02    8.5130312500e+04
    1.0129716247e-02    8.5069125000e+04
    1.0139951482e-02    8.5008234375e+04
    1.0149902664e-02    8.4950460938e+04
    1.0159977712e-02    8.4893195312e+04
    1.0169743560e-02    8.4838210938e+04
    1.0179616511e-02    8.4782375000e+04
    1.0189595632e-02    8.4725156250e+04
    1.0199684650e-02    8.4666601562e+04
    1.0209878907e-02    8.4607484375e+04
    1.0219726712e-02    8.4551210938e+04
    1.0229662992e-02    8.4495546875e+04
    1.0239670053e-02    8.4440414062e+04
    1.0249729268e-02    8.4385625000e+04
    1.0259828530e-02    8.4330765625e+04
    1.0269956663e-02    8.4275281250e+04
    1.0279679671e-02    8.4221640625e+04
    1.0289900005e-02    8.4165148438e+04
    1.0299698450e-02    8.4111828125e+04
    1.0309542529e-02    8.4059203125e+04
    1.0319917463e-02    8.4004710938e+04
    1.0329857469e-02    8.3952820312e+04
    1.0339847766e-02    8.3900664062e+04
    1.0349897668e-02    8.3848000000e+04
    1.0359956883e-02    8.3795085938e+04
    1.0369606316e-02    8.3744406250e+04
    1.0379790328e-02    8.3691617188e+04
    1.0389975272e-02    8.3639398438e+04
    1.0399768129e-02    8.3589921875e+04
    1.0409565642e-02    8.3540593750e+04
    1.0419928469e-02    8.3488695312e+04
    1.0429804213e-02    8.3438851562e+04
    1.0439753532e-02    8.3388671875e+04
    1.0449724272e-02    8.3338890625e+04
    1.0459702462e-02    8.3289531250e+04
    1.0469797999e-02    8.3240515625e+04
    1.0479910299e-02    8.3191312500e+04
    1.0489979759e-02    8.3142406250e+04
    1.0499608703e-02    8.3095757812e+04
    1.0509814136e-02    8.3046601562e+04
    1.0519547388e-02    8.3000078125e+04
    1.0529754683e-02    8.2951328125e+04
    1.0539526120e-02    8.2905031250e+04
    1.0549900122e-02    8.2856382812e+04
    1.0559821501e-02    8.2810500000e+04
    1.0569693521e-02    8.2764296875e+04
    1.0579623282e-02    8.2718343750e+04
    1.0589560494e-02    8.2672312500e+04
    1.0599540547e-02    8.2626562500e+04
    1.0609546676e-02    8.2581140625e+04
    1.0619550012e-02    8.2535875000e+04
    1.0629673488e-02    8.2490750000e+04
    1.0639770888e-02    8.2445625000e+04
    1.0649815202e-02    8.2400531250e+04
    1.0659963824e-02    8.2355710938e+04
    1.0669613257e-02    8.2313187500e+04
    1.0679790750e-02    8.2268921875e+04
    1.0689497925e-02    8.2226539062e+04
    1.0699721985e-02    8.2182593750e+04
    1.0709974915e-02    8.2138765625e+04
    1.0719748214e-02    8.2096921875e+04
    1.0729525238e-02    8.2055546875e+04
    1.0739787482e-02    8.2012148438e+04
    1.0749589652e-02    8.1971500000e+04
    1.0759708472e-02    8.1929304688e+04
    1.0769670829e-02    8.1887921875e+04
    1.0779842734e-02    8.1845757812e+04
    1.0789654218e-02    8.1805273438e+04
    1.0799558833e-02    8.1764734375e+04
    1.0809956118e-02    8.1722500000e+04
    1.0819901712e-02    8.1682281250e+04
    1.0829814710e-02    8.1642375000e+04
    1.0839653201e-02    8.1603007812e+04
    1.0849739425e-02    8.1562906250e+04
    1.0859963484e-02    8.1522515625e+04
    1.0869892314e-02    8.1483625000e+04
    1.0879772715e-02    8.1445281250e+04
    1.0889748111e-02    8.1406765625e+04
    1.0899844579e-02    8.1367843750e+04
    1.0909946635e-02    8.1329070312e+04
    1.0919975117e-02    8.1290937500e+04
    1.0929896496e-02    8.1253507812e+04
    1.0939907283e-02    8.1216125000e+04
    1.0949849151e-02    8.1179039062e+04
    1.0959913023e-02    8.1141656250e+04
    1.0969987139e-02    8.1104515625e+04
    1.0979847983e-02    8.1068414062e+04
    1.0989999399e-02    8.1031406250e+04
    1.0999878868e-02    8.0995570312e+04
    1.1009891517e-02    8.0959484375e+04
    1.1019973084e-02    8.0923429688e+04
    1.1029916815e-02    8.0888062500e+04
    1.1039871722e-02    8.0852882812e+04
    1.1049811728e-02    8.0818015625e+04
    1.1059785262e-02    8.0783359375e+04
    1.1069958098e-02    8.0748226562e+04
    1.1079875752e-02    8.0714187500e+04
    1.1089950800e-02    8.0679757812e+04
    1.1099918745e-02    8.0645828125e+04
    1.1109771207e-02    8.0612531250e+04
    1.1119939387e-02    8.0578453125e+04
    1.1129952036e-02    8.0545187500e+04
    1.1139791459e-02    8.0512601562e+04
    1.1149923317e-02    8.0479117188e+04
    1.1159864254e-02    8.0446437500e+04
    1.1169858277e-02    8.0413835938e+04
    1.1179888621e-02    8.0381429688e+04
    1.1189951561e-02    8.0349226562e+04
    1.1199818924e-02    8.0317875000e+04
    1.1209948920e-02    8.0285875000e+04
    1.1219872162e-02    8.0254632812e+04
    1.1229815893e-02    8.0223484375e+04
    1.1239791289e-02    8.0192484375e+04
    1.1249790899e-02    8.0161695312e+04
    1.1259801686e-02    8.0131046875e+04
    1.1269857176e-02    8.0100335938e+04
    1.1279904284e-02    8.0069742188e+04
    1.1289999820e-02    8.0039257812e+04
    1.1299844831e-02    8.0009882812e+04
    1.1309961788e-02    7.9979976562e+04
    1.1319863610e-02    7.9950875000e+04
    1.1329756118e-02    7.9921976562e+04
    1.1339937337e-02    7.9892445312e+04
    1.1349861510e-02    7.9863812500e+04
    1.1359832250e-02    7.9835242188e+04
    1.1369808577e-02    7.9806929688e+04
    1.1379785836e-02    7.9778867188e+04
    1.1389803141e-02    7.9750835938e+04
    1.1399827898e-02    7.9722890625e+04
    1.1409866624e-02    7.9695039062e+04
    1.1419921182e-02    7.9667296875e+04
    1.1429750361e-02    7.9640382812e+04
    1.1439838447e-02    7.9613000000e+04
    1.1449932121e-02    7.9585843750e+04
    1.1459806003e-02    7.9559453125e+04
    1.1469942518e-02    7.9532539062e+04
    1.1479823850e-02    7.9506546875e+04
    1.1489980854e-02    7.9480140625e+04
    1.1499910615e-02    7.9454539062e+04
    1.1509834789e-02    7.9429046875e+04
    1.1519766413e-02    7.9403601562e+04
    1.1529983953e-02    7.9377632812e+04
    1.1539960280e-02    7.9352539062e+04
    1.1549922638e-02    7.9327656250e+04
    1.1559909210e-02    7.9302789062e+04
    1.1569920927e-02    7.9277960938e+04
    1.1579927988e-02    7.9253414062e+04
    1.1589930393e-02    7.9229234375e+04
    1.1599969119e-02    7.9205203125e+04
    1.1609761044e-02    7.9181882812e+04
    1.1619800702e-02    7.9158125000e+04
    1.1629849672e-02    7.9134539062e+04
    1.1639930308e-02    7.9111015625e+04
    1.1649745516e-02    7.9088250000e+04
    1.1659821495e-02    7.9065085938e+04
    1.1669925414e-02    7.9042015625e+04
    1.1679780670e-02    7.9019625000e+04
    1.1689879932e-02    7.8996937500e+04
    1.1699995957e-02    7.8974546875e+04
    1.1709880084e-02    7.8952906250e+04
    1.1719764210e-02    7.8931375000e+04
    1.1729896069e-02    7.8909398438e+04
    1.1739787646e-02    7.8888062500e+04
    1.1749960482e-02    7.8866320312e+04
    1.1759870686e-02    7.8845320312e+04
    1.1769784614e-02    7.8824445312e+04
    1.1779972352e-02    7.8803117188e+04
    1.1789908633e-02    7.8782570312e+04
    1.1799846776e-02    7.8762390625e+04
    1.1809798889e-02    7.8742460938e+04
    1.1819760315e-02    7.8722554688e+04
    1.1829981580e-02    7.8702070312e+04
    1.1839946732e-02    7.8682203125e+04
    1.1849926785e-02    7.8662570312e+04
    1.1859919876e-02    7.8643203125e+04
    1.1869908310e-02    7.8624054688e+04
    1.1879893951e-02    7.8605093750e+04
    1.1889899150e-02    7.8586257812e+04
    1.1899912730e-02    7.8567593750e+04
    1.1909928173e-02    7.8549117188e+04
    1.1919947341e-02    7.8530742188e+04
    1.1929969303e-02    7.8512437500e+04
    1.1939736083e-02    7.8494742188e+04
    1.1949776672e-02    7.8476765625e+04
    1.1959820986e-02    7.8459023438e+04
    1.1969868094e-02    7.8441507812e+04
    1.1979917064e-02    7.8424187500e+04
    1.1989971623e-02    7.8406976562e+04
    1.1999776587e-02    7.8390226562e+04
    1.2009846978e-02    7.8373132812e+04
    1.2019918300e-02    7.8356234375e+04
    1.2029990554e-02    7.8339570312e+04
    1.2039803900e-02    7.8323609375e+04
    1.2049888261e-02    7.8307476562e+04
    1.2059974484e-02    7.8291531250e+04
    1.2069796212e-02    7.8276101562e+04
    1.2079890817e-02    7.8260242188e+04
    1.2089992873e-02    7.8244414062e+04
    1.2099833228e-02    7.8229195312e+04
    1.2109940872e-02    7.8213898438e+04
    1.2119780295e-02    7.8199296875e+04
    1.2129885145e-02    7.8184484375e+04
    1.2139989994e-02    7.8169750000e+04
    1.2149832211e-02    7.8155460938e+04
    1.2159939855e-02    7.8140851562e+04
    1.2169783004e-02    7.8126757812e+04
    1.2179895304e-02    7.8112539062e+04
    1.2189743109e-02    7.8098976562e+04
    1.2199858204e-02    7.8085257812e+04
    1.2209974229e-02    7.8071648438e+04
    1.2219824828e-02    7.8058523438e+04
    1.2229940854e-02    7.8045164062e+04
    1.2239791453e-02    7.8032234375e+04
    1.2249907479e-02    7.8019117188e+04
    1.2259758078e-02    7.8006664062e+04
    1.2269874103e-02    7.7994164062e+04
    1.2279990129e-02    7.7981773438e+04
    1.2289840728e-02    7.7969750000e+04
    1.2299957685e-02    7.7957523438e+04
    1.2309809215e-02    7.7945742188e+04
    1.2319928035e-02    7.7933812500e+04
    1.2329780497e-02    7.7922437500e+04
    1.2339900248e-02    7.7911007812e+04
    1.2349754572e-02    7.7900007812e+04
    1.2359874323e-02    7.7888789062e+04
    1.2369995937e-02    7.7877703125e+04
    1.2379851192e-02    7.7867062500e+04
    1.2389974669e-02    7.7856304688e+04
    1.2399831787e-02    7.7846015625e+04
    1.2409955263e-02    7.7835625000e+04
    1.2419813313e-02    7.7825679688e+04
    1.2429937720e-02    7.7815632812e+04
    1.2439796701e-02    7.7805976562e+04
    1.2449922040e-02    7.7796140625e+04
    1.2459781952e-02    7.7786703125e+04
    1.2469908223e-02    7.7777289062e+04
    1.2479768135e-02    7.7768390625e+04
    1.2489893474e-02    7.7759335938e+04
    1.2499753386e-02    7.7750515625e+04
    1.2509879656e-02    7.7741570312e+04
    1.2519740500e-02    7.7733132812e+04
    1.2529869564e-02    7.7724757812e+04
    1.2539735064e-02    7.7716812500e+04
    1.2549872510e-02    7.7708750000e+04
    1.2559748255e-02    7.7700921875e+04
    1.2569892220e-02    7.7692945312e+04
    1.2579767033e-02    7.7685398438e+04
    1.2589907274e-02    7.7677945312e+04
    1.2599780224e-02    7.7670867188e+04
    1.2609919533e-02    7.7663703125e+04
    1.2619790621e-02    7.7656812500e+04
    1.2629930861e-02    7.7649828125e+04
    1.2639806606e-02    7.7643164062e+04
    1.2649952434e-02    7.7636578125e+04
    1.2659830041e-02    7.7630421875e+04
    1.2669974938e-02    7.7624250000e+04
    1.2679852545e-02    7.7618320312e+04
    1.2689998373e-02    7.7612335938e+04
    1.2699875981e-02    7.7606679688e+04
    1.2709754519e-02    7.7601234375e+04
    1.2719899416e-02    7.7595828125e+04
    1.2729777955e-02    7.7590703125e+04
    1.2739922851e-02    7.7585562500e+04
    1.2749801390e-02    7.7580687500e+04
    1.2759947218e-02    7.7575812500e+04
    1.2769826688e-02    7.7571210938e+04
    1.2779972516e-02    7.7566718750e+04
    1.2789851986e-02    7.7562617188e+04
    1.2799997814e-02    7.7558539062e+04
    1.2809877284e-02    7.7554554688e+04
    1.2819755822e-02    7.7550648438e+04
    1.2829901651e-02    7.7546953125e+04
    1.2839782052e-02    7.7543687500e+04
    1.2849928811e-02    7.7540445312e+04
    1.2859808281e-02    7.7537265625e+04
    1.2869955041e-02    7.7534101562e+04
    1.2879834510e-02    7.7531250000e+04
    1.2889980339e-02    7.7528554688e+04
    1.2899860740e-02    7.7526125000e+04
    1.2909741141e-02    7.7523820312e+04
    1.2919887900e-02    7.7521484375e+04
    1.2929768302e-02    7.7519312500e+04
    1.2939915061e-02    7.7517343750e+04
    1.2949795462e-02    7.7515695312e+04
    1.2959942222e-02    7.7514148438e+04
    1.2969823554e-02    7.7512718750e+04
    1.2979971245e-02    7.7511351562e+04
    1.2989851646e-02    7.7510203125e+04
    1.2999999337e-02    7.7509265625e+04
    1.3009879738e-02    7.7508562500e+04
    1.3019761071e-02    7.7507929688e+04
    1.3029908761e-02    7.7507320312e+04
    1.3039790094e-02    7.7506875000e+04
    1.3049937785e-02    7.7506687500e+04
    1.3059819117e-02    7.7506781250e+04
    1.3069966808e-02    7.7507023438e+04
    1.3079849072e-02    7.7507289062e+04
    1.3089996763e-02    7.7507617188e+04
    1.3099878095e-02    7.7508179688e+04
    1.3109760359e-02    7.7509109375e+04
    1.3119908050e-02    7.7510335938e+04
    1.3129790314e-02    7.7511554688e+04
    1.3139938936e-02    7.7512718750e+04
    1.3149821199e-02    7.7513960938e+04
    1.3159969822e-02    7.7515632812e+04
    1.3169851154e-02    7.7517609375e+04
    1.3179733418e-02    7.7519695312e+04
    1.3189882971e-02    7.7521828125e+04
    1.3199764304e-02    7.7523992188e+04
    1.3209913857e-02    7.7526484375e+04
    1.3219796121e-02    7.7529195312e+04
    1.3229945675e-02    7.7532125000e+04
    1.3239828870e-02    7.7534976562e+04
    1.3249978423e-02    7.7538015625e+04
    1.3259860687e-02    7.7541242188e+04
    1.3269743882e-02    7.7544710938e+04
    1.3279893436e-02    7.7548390625e+04
    1.3289775699e-02    7.7552085938e+04
    1.3299926184e-02    7.7556039062e+04
    1.3309809379e-02    7.7560109375e+04
    1.3319959864e-02    7.7564531250e+04
    1.3329843059e-02    7.7569000000e+04
    1.3339993544e-02    7.7573640625e+04
    1.3349876739e-02    7.7578281250e+04
    1.3359760866e-02    7.7583156250e+04
    1.3369912282e-02    7.7588437500e+04
    1.3379796408e-02    7.7593742188e+04
    1.3389948756e-02    7.7599273438e+04
    1.3399832882e-02    7.7604750000e+04
    1.3409985229e-02    7.7610570312e+04
    1.3419870287e-02    7.7616476562e+04
    1.3429755345e-02    7.7622578125e+04
    1.3439906761e-02    7.7628992188e+04
    1.3449791819e-02    7.7635367188e+04
    1.3459944166e-02    7.7642093750e+04
    1.3469829224e-02    7.7648851562e+04
    1.3479981571e-02    7.7655968750e+04
    1.3489867561e-02    7.7663023438e+04
    1.3499753550e-02    7.7670250000e+04
    1.3509906828e-02    7.7677937500e+04
    1.3519793749e-02    7.7685609375e+04
    1.3529947959e-02    7.7693593750e+04
    1.3539834879e-02    7.7701515625e+04
    1.3549989089e-02    7.7709890625e+04
    1.3559876010e-02    7.7718242188e+04
    1.3569762930e-02    7.7726742188e+04
    1.3579918072e-02    7.7735625000e+04
    1.3589805923e-02    7.7744445312e+04
    1.3599960133e-02    7.7753703125e+04
    1.3609847985e-02    7.7762945312e+04
    1.3619735837e-02    7.7772359375e+04
    1.3629890978e-02    7.7782179688e+04
    1.3639778830e-02    7.7791906250e+04
    1.3649934903e-02    7.7802117188e+04
    1.3659822755e-02    7.7812257812e+04
    1.3669978827e-02    7.7822828125e+04
    1.3679868542e-02    7.7833328125e+04
    1.3689758256e-02    7.7844046875e+04
    1.3699915260e-02    7.7855242188e+04
    1.3709804974e-02    7.7866296875e+04
    1.3719961978e-02    7.7877843750e+04
    1.3729851693e-02    7.7889312500e+04
    1.3739741407e-02    7.7900976562e+04
    1.3749899343e-02    7.7913117188e+04
    1.3759789988e-02    7.7925132812e+04
    1.3769947924e-02    7.7937710938e+04
    1.3779838569e-02    7.7950171875e+04
    1.3789997436e-02    7.7963125000e+04
    1.3799889013e-02    7.7975898438e+04
    1.3809779659e-02    7.7988898438e+04
    1.3819939457e-02    7.8002515625e+04
    1.3829831034e-02    7.8015968750e+04
    1.3839990832e-02    7.8029945312e+04
    1.3849882409e-02    7.8043734375e+04
    1.3859774917e-02    7.8057765625e+04
    1.3869934715e-02    7.8072421875e+04
    1.3879827224e-02    7.8086867188e+04
    1.3889987953e-02    7.8101867188e+04
    1.3899881393e-02    7.8116695312e+04
    1.3909774832e-02    7.8131765625e+04
    1.3919935562e-02    7.8147453125e+04
    1.3929829001e-02    7.8162937500e+04
    1.3939989731e-02    7.8179101562e+04
    1.3949884102e-02    7.8195085938e+04
    1.3959778473e-02    7.8211250000e+04
    1.3969940133e-02    7.8228062500e+04
    1.3979834504e-02    7.8244671875e+04
    1.3989997096e-02    7.8262000000e+04
    1.3999891467e-02    7.8279109375e+04
    1.4009786770e-02    7.8296398438e+04
    1.4019949362e-02    7.8314351562e+04
    1.4029844664e-02    7.8332062500e+04
    1.4039739966e-02    7.8350039062e+04
    1.4049903490e-02    7.8368773438e+04
    1.4059798792e-02    7.8387242188e+04
    1.4069962315e-02    7.8406406250e+04
    1.4079858549e-02    7.8425265625e+04
    1.4089754783e-02    7.8444382812e+04
    1.4099919237e-02    7.8464304688e+04
    1.4109815471e-02    7.8483953125e+04
    1.4119979925e-02    7.8504398438e+04
    1.4129877090e-02    7.8529835938e+04
    1.4139774255e-02    7.9014734375e+04
    1.4149938710e-02    9.3629601562e+04
    1.4159836806e-02    1.0346084375e+05
    1.4169733971e-02    1.0373196875e+05
    1.4179899357e-02    1.0349435156e+05
    1.4189796522e-02    1.0337541406e+05
    1.4199961908e-02    1.0331800000e+05
    1.4209860004e-02    1.0326846875e+05
    1.4219759032e-02    1.0321994531e+05
    1.4229924418e-02    1.0316421094e+05
    1.4239823446e-02    1.0310664844e+05
    1.4249989763e-02    1.0304791406e+05
    1.4259887859e-02    1.0299246094e+05
    1.4269786887e-02    1.0293803906e+05
    1.4279954135e-02    1.0288260156e+05
    1.4289854094e-02    1.0282832031e+05
    1.4299753122e-02    1.0277396875e+05
    1.4309920371e-02    1.0271834375e+05
    1.4319820330e-02    1.0266433594e+05
    1.4329987578e-02    1.0260877344e+05
    1.4339888468e-02    1.0255617969e+05
    1.4349788427e-02    1.0250257031e+05
    1.4359956607e-02    1.0244842969e+05
    1.4369856566e-02    1.0239469531e+05
    1.4379757456e-02    1.0234392969e+05
    1.4389925636e-02    1.0228843750e+05
    1.4399826527e-02    1.0223664844e+05
    1.4409995638e-02    1.0218367969e+05
    1.4419896528e-02    1.0213178125e+05
    1.4429798350e-02    1.0207978125e+05
    1.4439967461e-02    1.0202708594e+05
    1.4449869283e-02    1.0197609375e+05
    1.4459771104e-02    1.0192493750e+05
    1.4469940215e-02    1.0187275781e+05
    1.4479842968e-02    1.0182228906e+05
    1.4489744790e-02    1.0177178906e+05
    1.4499914832e-02    1.0172028906e+05
    1.4509817585e-02    1.0167021875e+05
    1.4519987628e-02    1.0161905469e+05
    1.4529890381e-02    1.0156942969e+05
    1.4539793134e-02    1.0151997656e+05
    1.4549964108e-02    1.0146953125e+05
    1.4559866861e-02    1.0142044531e+05
    1.4569770545e-02    1.0137164844e+05
    1.4579941519e-02    1.0132177344e+05
    1.4589845203e-02    1.0127330469e+05
    1.4599748887e-02    1.0122512500e+05
    1.4609919861e-02    1.0117571875e+05
    1.4619823545e-02    1.0112778125e+05
    1.4629995450e-02    1.0107877344e+05
    1.4639899135e-02    1.0103110156e+05
    1.4649803750e-02    1.0098366406e+05
    1.4659975655e-02    1.0093512500e+05
    1.4669880271e-02    1.0088800000e+05
    1.4679784887e-02    1.0084111719e+05
    1.4689956792e-02    1.0079312500e+05
    1.4699862339e-02    1.0074663281e+05
    1.4709766954e-02    1.0070037500e+05
    1.4719939791e-02    1.0065307031e+05
    1.4729845338e-02    1.0060705469e+05
    1.4739749953e-02    1.0056139844e+05
    1.4749922790e-02    1.0051522656e+05
    1.4759828337e-02    1.0046906250e+05
    1.4769733883e-02    1.0042396875e+05
    1.4779907651e-02    1.0037812500e+05
    1.4789813198e-02    1.0033353906e+05
    1.4799986966e-02    1.0028639844e+05
    1.4809892513e-02    1.0024252344e+05
    1.4819798991e-02    1.0019853125e+05
    1.4829972759e-02    1.0015258594e+05
    1.4839879237e-02    1.0010813281e+05
    1.4849785715e-02    1.0006502344e+05
    1.4859959483e-02    1.0001971094e+05
    1.4869865961e-02    9.9976242188e+04
    1.4879772440e-02    9.9932851562e+04
    1.4889947139e-02    9.9888304688e+04
    1.4899853617e-02    9.9845179688e+04
    1.4909761027e-02    9.9802304688e+04
    1.4919935726e-02    9.9758375000e+04
    1.4929843135e-02    9.9716007812e+04
    1.4939749613e-02    9.9673687500e+04
    1.4949925244e-02    9.9630242188e+04
    1.4959832653e-02    9.9588023438e+04
    1.4969740063e-02    9.9545976562e+04
    1.4979914762e-02    9.9503031250e+04
    1.4989822172e-02    9.9461398438e+04
    1.4999997802e-02    9.9418789062e+04
    1.5009905212e-02    9.9377367188e+04
    1.5019812621e-02    9.9335992188e+04
    1.5029988252e-02    9.9293687500e+04
    1.5039896592e-02    9.9252710938e+04
    1.5049804002e-02    9.9211914062e+04
    1.5059980564e-02    9.9170210938e+04
    1.5069887973e-02    9.9129695312e+04
    1.5079796314e-02    9.9089320312e+04
    1.5089972876e-02    9.9047906250e+04
    1.5099881217e-02    9.9007710938e+04
    1.5109788626e-02    9.8968023438e+04
    1.5119965188e-02    9.8926976562e+04
    1.5129873529e-02    9.8886648438e+04
    1.5139781870e-02    9.8847570312e+04
    1.5149958432e-02    9.8806914062e+04
    1.5159866773e-02    9.8767398438e+04
    1.5169775113e-02    9.8727664062e+04
    1.5179951675e-02    9.8688445312e+04
    1.5189860947e-02    9.8649023438e+04
    1.5199769288e-02    9.8609804688e+04
    1.5209945850e-02    9.8569710938e+04
    1.5219854191e-02    9.8532023438e+04
    1.5229763463e-02    9.8492742188e+04
    1.5239940025e-02    9.8452968750e+04
    1.5249848366e-02    9.8415375000e+04
    1.5259757638e-02    9.8377164062e+04
    1.5269934200e-02    9.8337554688e+04
    1.5279843472e-02    9.8299570312e+04
    1.5289751813e-02    9.8261312500e+04
    1.5299929306e-02    9.8222726562e+04
    1.5309837647e-02    9.8184585938e+04
    1.5319746919e-02    9.8148085938e+04
    1.5329923481e-02    9.8109593750e+04
    1.5339832753e-02    9.8072945312e+04
    1.5349742025e-02    9.8035132812e+04
    1.5359918587e-02    9.7996289062e+04
    1.5369827859e-02    9.7957906250e+04
    1.5379737131e-02    9.7920289062e+04
    1.5389913693e-02    9.7882601562e+04
    1.5399822965e-02    9.7847367188e+04
    1.5409999527e-02    9.7812101562e+04
    1.5419908799e-02    9.7777710938e+04
    1.5429817140e-02    9.7742250000e+04
    1.5439994633e-02    9.7703898438e+04
    1.5449902974e-02    9.7664812500e+04
    1.5459812246e-02    9.7625039062e+04
    1.5469988808e-02    9.7584906250e+04
    1.5479898080e-02    9.7547781250e+04
    1.5489807352e-02    9.7513117188e+04
    1.5499983914e-02    9.7479718750e+04
    1.5509893186e-02    9.7448289062e+04
    1.5519801527e-02    9.7416750000e+04
    1.5529979020e-02    9.7383210938e+04
    1.5539887361e-02    9.7349101562e+04
    1.5549796633e-02    9.7313406250e+04
    1.5559973195e-02    9.7274710938e+04
    1.5569882467e-02    9.7236460938e+04
    1.5579791740e-02    9.7199195312e+04
    1.5589968301e-02    9.7160632812e+04
    1.5599876642e-02    9.7124070312e+04
    1.5609785914e-02    9.7089351562e+04
    1.5619962476e-02    9.7054906250e+04
    1.5629870817e-02    9.7020812500e+04
    1.5639780089e-02    9.6987351562e+04
    1.5649957582e-02    9.6953601562e+04
    1.5659864992e-02    9.6920507812e+04
    1.5669774264e-02    9.6886500000e+04
    1.5679951757e-02    9.6851781250e+04
    1.5689859167e-02    9.6817835938e+04
    1.5699768439e-02    9.6783570312e+04
    1.5709945932e-02    9.6748632812e+04
    1.5719853342e-02    9.6715117188e+04
    1.5729762614e-02    9.6681695312e+04
    1.5739938244e-02    9.6647312500e+04
    1.5749847516e-02    9.6614039062e+04
    1.5759756789e-02    9.6580343750e+04
    1.5769932419e-02    9.6546007812e+04
    1.5779841691e-02    9.6512554688e+04
    1.5789749101e-02    9.6479289062e+04
    1.5799926594e-02    9.6445343750e+04
    1.5809834003e-02    9.6412156250e+04
    1.5819743276e-02    9.6379179688e+04
    1.5829918906e-02    9.6345304688e+04
    1.5839828178e-02    9.6312539062e+04
    1.5849737450e-02    9.6279898438e+04
    1.5859913081e-02    9.6246523438e+04
    1.5869822353e-02    9.6214164062e+04
    1.5879997984e-02    9.6181062500e+04
    1.5889907256e-02    9.6148976562e+04
    1.5899816528e-02    9.6117085938e+04
    1.5909994021e-02    9.6084539062e+04
    1.5919903293e-02    9.6053039062e+04
    1.5929812565e-02    9.6021710938e+04
    1.5939990059e-02    9.5989867188e+04
    1.5949901193e-02    9.5958992188e+04
    1.5959810466e-02    9.5927437500e+04
    1.5969987959e-02    9.5894976562e+04
    1.5979899094e-02    9.5864054688e+04
    1.5989810228e-02    9.5831710938e+04
    1.5999989584e-02    9.5797914062e+04
    1.6009902582e-02    9.5766101562e+04
    1.6019813716e-02    9.5734242188e+04
    1.6029993072e-02    9.5701539062e+04
    1.6039906070e-02    9.5670882812e+04
    1.6049819067e-02    9.5641898438e+04
    1.6060000286e-02    9.5611351562e+04
    1.6069913283e-02    9.5582164062e+04
    1.6079826280e-02    9.5552226562e+04
    1.6089741141e-02    9.5521906250e+04
    1.6099924222e-02    9.5488835938e+04
    1.6109839082e-02    9.5456648438e+04
    1.6119753942e-02    9.5424476562e+04
    1.6129937023e-02    9.5392179688e+04
    1.6139851883e-02    9.5361906250e+04
    1.6149766743e-02    9.5332742188e+04
    1.6159951687e-02    9.5302742188e+04
    1.6169868410e-02    9.5273898438e+04
    1.6179785132e-02    9.5244085938e+04
    1.6189971939e-02    9.5213625000e+04
    1.6199890524e-02    9.5183101562e+04
    1.6209810972e-02    9.5152492188e+04
    1.6219997779e-02    9.5120695312e+04
    1.6229916364e-02    9.5089914062e+04
    1.6239834949e-02    9.5059914062e+04
    1.6249755397e-02    9.5030664062e+04
    1.6259942204e-02    9.5001414062e+04
    1.6269862652e-02    9.4972945312e+04
    1.6279783100e-02    9.4943914062e+04
    1.6289973632e-02    9.4913187500e+04
    1.6299895942e-02    9.4882601562e+04
    1.6309820116e-02    9.4851914062e+04
    1.6319742426e-02    9.4821687500e+04
    1.6329934821e-02    9.4791710938e+04
    1.6339860857e-02    9.4763554688e+04
    1.6349786893e-02    9.4735382812e+04
    1.6359981149e-02    9.4705554688e+04
    1.6369905323e-02    9.4676414062e+04
    1.6379833221e-02    9.4646960938e+04
    1.6389761120e-02    9.4616226562e+04
    1.6399957240e-02    9.4585937500e+04
    1.6409887001e-02    9.4558085938e+04
    1.6419816762e-02    9.4529835938e+04
    1.6429746523e-02    9.4501312500e+04
    1.6439946368e-02    9.4472156250e+04
    1.6449877992e-02    9.4443523438e+04
    1.6459809616e-02    9.4413539062e+04
    1.6469743103e-02    9.4384398438e+04
    1.6479944810e-02    9.4355101562e+04
    1.6489882022e-02    9.4327539062e+04
    1.6499819234e-02    9.4298875000e+04
    1.6509758309e-02    9.4271335938e+04
    1.6519965604e-02    9.4241375000e+04
    1.6529906541e-02    9.4212429688e+04
    1.6539849341e-02    9.4183773438e+04
    1.6549794003e-02    9.4155648438e+04
    1.6559736803e-02    9.4127976562e+04
    1.6569947824e-02    9.4099625000e+04
    1.6579894349e-02    9.4071343750e+04
    1.6589840874e-02    9.4042960938e+04
    1.6599789262e-02    9.4014179688e+04
    1.6609737650e-02    9.3986312500e+04
    1.6619954258e-02    9.3957773438e+04
    1.6629906371e-02    9.3930562500e+04
    1.6639860347e-02    9.3902851562e+04
    1.6649818048e-02    9.3874820312e+04
    1.6659773886e-02    9.3846601562e+04
    1.6669999808e-02    9.3817710938e+04
    1.6679957509e-02    9.3790257812e+04
    1.6689918935e-02    9.3763007812e+04
    1.6699882224e-02    9.3735710938e+04
    1.6709843650e-02    9.3708023438e+04
    1.6719806939e-02    9.3680132812e+04
    1.6729772091e-02    9.3652632812e+04
    1.6739740968e-02    9.3625429688e+04
    1.6749983653e-02    9.3597289062e+04
    1.6759954393e-02    9.3570023438e+04
    1.6769925132e-02    9.3543210938e+04
    1.6779899597e-02    9.3515601562e+04
    1.6789877787e-02    9.3487710938e+04
    1.6799857840e-02    9.3461414062e+04
    1.6809837893e-02    9.3434789062e+04
    1.6819816083e-02    9.3407226562e+04
    1.6829796135e-02    9.3380039062e+04
    1.6839783639e-02    9.3353398438e+04
    1.6849773005e-02    9.3326343750e+04
    1.6859762371e-02    9.3299195312e+04
    1.6869751737e-02    9.3272835938e+04
    1.6879739240e-02    9.3246031250e+04
    1.6889734194e-02    9.3219414062e+04
    1.6899732873e-02    9.3192531250e+04
    1.6909999773e-02    9.3165781250e+04
    1.6919996589e-02    9.3139070312e+04
    1.6929995269e-02    9.3113164062e+04
    1.6939997673e-02    9.3086210938e+04
    1.6949735582e-02    9.3060570312e+04
    1.6959741712e-02    9.3033351562e+04
    1.6969749704e-02    9.3006570312e+04
    1.6979761422e-02    9.2979750000e+04
    1.6989775002e-02    9.2953023438e+04
    1.6999792308e-02    9.2926523438e+04
    1.7009809613e-02    9.2900687500e+04
    1.7019823194e-02    9.2874898438e+04
    1.7029842362e-02    9.2849710938e+04
    1.7039868981e-02    9.2824398438e+04
    1.7049899325e-02    9.2798976562e+04
    1.7059929669e-02    9.2773218750e+04
    1.7069958150e-02    9.2747445312e+04
    1.7079984769e-02    9.2721648438e+04
    1.7089746892e-02    9.2696187500e+04
    1.7099784687e-02    9.2670023438e+04
    1.7109822482e-02    9.2644054688e+04
    1.7119862139e-02    9.2618289062e+04
    1.7129898071e-02    9.2592679688e+04
    1.7139934003e-02    9.2566945312e+04
    1.7149981111e-02    9.2541257812e+04
    1.7159756273e-02    9.2516851562e+04
    1.7169803381e-02    9.2491601562e+04
    1.7179856077e-02    9.2465539062e+04
    1.7189908773e-02    9.2440414062e+04
    1.7199965194e-02    9.2415835938e+04
    1.7209753394e-02    9.2390914062e+04
    1.7219809815e-02    9.2365601562e+04
    1.7229871824e-02    9.2341125000e+04
    1.7239941284e-02    9.2316976562e+04
    1.7249736935e-02    9.2292492188e+04
    1.7259806395e-02    9.2268210938e+04
    1.7269873992e-02    9.2244179688e+04
    1.7279941589e-02    9.2219632812e+04
    1.7289742827e-02    9.2196132812e+04
    1.7299823463e-02    9.2171617188e+04
    1.7309904099e-02    9.2146898438e+04
    1.7319984734e-02    9.2121976562e+04
    1.7329791561e-02    9.2097992188e+04
    1.7339866608e-02    9.2072804688e+04
    1.7349952832e-02    9.2048187500e+04
    1.7359770834e-02    9.2023898438e+04
    1.7369862646e-02    9.1999710938e+04
    1.7379958183e-02    9.1975367188e+04
    1.7389778048e-02    9.1952351562e+04
    1.7399871722e-02    9.1928531250e+04
    1.7409970984e-02    9.1905226562e+04
    1.7419796437e-02    9.1882210938e+04
    1.7429901287e-02    9.1858835938e+04
    1.7439737916e-02    9.1835664062e+04
    1.7449846491e-02    9.1811835938e+04
    1.7459955066e-02    9.1787898438e+04
    1.7469793558e-02    9.1764531250e+04
    1.7479903996e-02    9.1740789062e+04
    1.7489746213e-02    9.1717656250e+04
    1.7499869689e-02    9.1694031250e+04
    1.7509993166e-02    9.1670718750e+04
    1.7519842833e-02    9.1648539062e+04
    1.7529966310e-02    9.1625648438e+04
    1.7539815977e-02    9.1602914062e+04
    1.7549945042e-02    9.1580062500e+04
    1.7559807748e-02    9.1557804688e+04
    1.7569944263e-02    9.1534062500e+04
    1.7579810694e-02    9.1511585938e+04
    1.7589949071e-02    9.1489164062e+04
    1.7599811777e-02    9.1466968750e+04
    1.7609953880e-02    9.1443617188e+04
    1.7619827762e-02    9.1421898438e+04
    1.7629979178e-02    9.1399851562e+04
    1.7639858648e-02    9.1377367188e+04
    1.7649738118e-02    9.1355625000e+04
    1.7659891397e-02    9.1333437500e+04
    1.7669774592e-02    9.1311492188e+04
    1.7679931596e-02    9.1288960938e+04
    1.7689820379e-02    9.1267523438e+04
    1.7699990422e-02    9.1245226562e+04
    1.7709884793e-02    9.1223851562e+04
    1.7719781026e-02    9.1202523438e+04
    1.7729952931e-02    9.1180289062e+04
    1.7739851028e-02    9.1159101562e+04
    1.7749752849e-02    9.1137687500e+04
    1.7759939656e-02    9.1115914062e+04
    1.7769852653e-02    9.1094718750e+04
    1.7779767513e-02    9.1073726562e+04
    1.7789958045e-02    9.1052156250e+04
    1.7799872905e-02    9.1031242188e+04
    1.7809793353e-02    9.1010351562e+04
    1.7819995061e-02    9.0988945312e+04
    1.7829921097e-02    9.0968226562e+04
    1.7839850858e-02    9.0947539062e+04
    1.7849780619e-02    9.0926789062e+04
    1.7859987915e-02    9.0905750000e+04
    1.7869921401e-02    9.0885289062e+04
    1.7879858613e-02    9.0865101562e+04
    1.7889797688e-02    9.0844656250e+04
    1.7899740487e-02    9.0824289062e+04
    1.7909962684e-02    9.0803648438e+04
    1.7919907346e-02    9.0783414062e+04
    1.7929853871e-02    9.0762992188e+04
    1.7939800397e-02    9.0743195312e+04
    1.7949752510e-02    9.0723757812e+04
    1.7959982157e-02    9.0702976562e+04
    1.7969936132e-02    9.0683039062e+04
    1.7979891971e-02    9.0663781250e+04
    1.7989847809e-02    9.0644156250e+04
    1.7999805510e-02    9.0624148438e+04
    1.8009763211e-02    9.0604750000e+04
    1.8019728363e-02    9.0585960938e+04
    1.8029969186e-02    9.0565562500e+04
    1.8039939925e-02    9.0546164062e+04
    1.8049910665e-02    9.0527445312e+04
    1.8059875816e-02    9.0508375000e+04
    1.8069842830e-02    9.0488960938e+04
    1.8079802394e-02    9.0470460938e+04
    1.8089758232e-02    9.0451335938e+04
    1.8099984154e-02    9.0432007812e+04
    1.8109928817e-02    9.0413367188e+04
    1.8119867891e-02    9.0394601562e+04
    1.8129801378e-02    9.0376070312e+04
    1.8139822409e-02    9.0357523438e+04
    1.8149735406e-02    9.0338968750e+04
    1.8159816042e-02    9.0320523438e+04
    1.8169764429e-02    9.0301960938e+04
    1.8179863691e-02    9.0283601562e+04
    1.8189813942e-02    9.0265375000e+04
    1.8199905753e-02    9.0247226562e+04
    1.8209824339e-02    9.0229312500e+04
    1.8219873309e-02    9.0211281250e+04
    1.8229739740e-02    9.0193585938e+04
    1.8239732832e-02    9.0175843750e+04
    1.8249843270e-02    9.0157960938e+04
    1.8259746954e-02    9.0140664062e+04
    1.8269767985e-02    9.0123062500e+04
    1.8279902637e-02    9.0105195312e+04
    1.8289813772e-02    9.0087750000e+04
    1.8299829215e-02    9.0070414062e+04
    1.8309948966e-02    9.0052960938e+04
    1.8319828436e-02    9.0035695312e+04
    1.8329806626e-02    9.0018820312e+04
    1.8339870498e-02    9.0001976562e+04
    1.8349679187e-02    8.9984789062e+04
    1.8359942362e-02    8.9967179688e+04
    1.8369929865e-02    8.9950914062e+04
    1.8379995599e-02    8.9934210938e+04
    1.8389768898e-02    8.9917601562e+04
    1.8399989232e-02    8.9900679688e+04
    1.8409883603e-02    8.9884773438e+04
    1.8419949338e-02    8.9867773438e+04
    1.8429929391e-02    8.9851023438e+04
    1.8439810723e-02    8.9835226562e+04
    1.8449932337e-02    8.9818851562e+04
    1.8459804356e-02    8.9802679688e+04
    1.8469935283e-02    8.9786398438e+04
    1.8479816616e-02    8.9770687500e+04
    1.8489964306e-02    8.9754375000e+04
    1.8499871716e-02    8.9738617188e+04
    1.8509797752e-02    8.9723093750e+04
    1.8519993871e-02    8.9707039062e+04
    1.8529942259e-02    8.9691539062e+04
    1.8539903685e-02    8.9676195312e+04
    1.8549880013e-02    8.9660757812e+04
    1.8559873104e-02    8.9645289062e+04
    1.8569882959e-02    8.9630039062e+04
    1.8579902127e-02    8.9614585938e+04
    1.8589928746e-02    8.9599562500e+04
    1.8599960953e-02    8.9584257812e+04
    1.8610000610e-02    8.9569367188e+04
    1.8619785085e-02    8.9554695312e+04
    1.8629835919e-02    8.9539882812e+04
    1.8639899790e-02    8.9524976562e+04
    1.8649978563e-02    8.9510195312e+04
    1.8659815192e-02    8.9495695312e+04
    1.8669929355e-02    8.9481031250e+04
    1.8679801375e-02    8.9466679688e+04
    1.8689945340e-02    8.9452210938e+04
    1.8699843436e-02    8.9437835938e+04
    1.8709752709e-02    8.9423625000e+04
    1.8719932064e-02    8.9409257812e+04
    1.8729861826e-02    8.9395562500e+04
    1.8739800900e-02    8.9381406250e+04
    1.8749751151e-02    8.9367218750e+04
    1.8759973347e-02    8.9353593750e+04
    1.8769936636e-02    8.9339898438e+04
    1.8779911101e-02    8.9325460938e+04
    1.8789887428e-02    8.9312195312e+04
    1.8799874932e-02    8.9299117188e+04
    1.8809869885e-02    8.9285101562e+04
    1.8819883466e-02    8.9271726562e+04
    1.8829911947e-02    8.9258554688e+04
    1.8839949742e-02    8.9245210938e+04
    1.8849736080e-02    8.9232101562e+04
    1.8859807402e-02    8.9219023438e+04
    1.8869888037e-02    8.9206125000e+04
    1.8879987299e-02    8.9192710938e+04
    1.8889835104e-02    8.9179945312e+04
    1.8899960443e-02    8.9166929688e+04
    1.8909830600e-02    8.9154304688e+04
    1.8919983879e-02    8.9141289062e+04
    1.8929889426e-02    8.9128789062e+04
    1.8939813599e-02    8.9116101562e+04
    1.8949750811e-02    8.9103710938e+04
    1.8959959969e-02    8.9090914062e+04
    1.8969917670e-02    8.9078414062e+04
    1.8979892135e-02    8.9066031250e+04
    1.8989883363e-02    8.9053648438e+04
    1.8999878317e-02    8.9041429688e+04
    1.9009891897e-02    8.9029210938e+04
    1.9019946456e-02    8.9017054688e+04
    1.9029745832e-02    8.9005242188e+04
    1.9039835781e-02    8.8993125000e+04
    1.9049929455e-02    8.8981117188e+04
    1.9059766084e-02    8.8969593750e+04
    1.9069891423e-02    8.8957898438e+04
    1.9079750404e-02    8.8946593750e+04
    1.9089894369e-02    8.8934882812e+04
    1.9099770114e-02    8.8923585938e+04
    1.9109928980e-02    8.8912226562e+04
    1.9119841978e-02    8.8901398438e+04
    1.9129790366e-02    8.8890023438e+04
    1.9139762968e-02    8.8878687500e+04
    1.9149743021e-02    8.8868031250e+04
    1.9159728661e-02    8.8857085938e+04
    1.9169723615e-02    8.8845507812e+04
    1.9179726020e-02    8.8834843750e+04
    1.9189743325e-02    8.8824335938e+04
    1.9199773669e-02    8.8813007812e+04
    1.9209813327e-02    8.8802289062e+04
    1.9219858572e-02    8.8791875000e+04
    1.9229920581e-02    8.8780968750e+04
    1.9239734858e-02    8.8770351562e+04
    1.9249839708e-02    8.8760023438e+04
    1.9259953871e-02    8.8749625000e+04
    1.9269805402e-02    8.8739382812e+04
    1.9279951230e-02    8.8729132812e+04
    1.9289821386e-02    8.8719257812e+04
    1.9299978390e-02    8.8709156250e+04
    1.9309865311e-02    8.8699351562e+04
    1.9319757819e-02    8.8689992188e+04
    1.9329940900e-02    8.8680210938e+04
    1.9339848310e-02    8.8671210938e+04
    1.9349766895e-02    8.8662125000e+04
    1.9359987229e-02    8.8653023438e+04
    1.9369939342e-02    8.8644085938e+04
    1.9379902631e-02    8.8634976562e+04
    1.9389875233e-02    8.8625648438e+04
    1.9399859011e-02    8.8616351562e+04
    1.9409844652e-02    8.8607148438e+04
    1.9419830292e-02    8.8598398438e+04
    1.9429825246e-02    8.8589835938e+04
    1.9439833239e-02    8.8581367188e+04
[...]
    1.1513981968e-01    1.0121646094e+05
    1.1514975131e-01    1.0121646094e+05
    1.1515969038e-01    1.0121646094e+05
    1.1516993493e-01    1.0121646094e+05
    1.1517987400e-01    1.0121644531e+05
    1.1518981308e-01    1.0121643750e+05
    1.1519974470e-01    1.0121643750e+05
    1.1520998925e-01    1.0121642969e+05
    1.1521992832e-01    1.0121642969e+05
    1.1522986740e-01    1.0121641406e+05
    1.1523979902e-01    1.0121641406e+05
    1.1524973810e-01    1.0121641406e+05
    1.1525998265e-01    1.0121641406e+05
    1.1526992172e-01    1.0121640625e+05
    1.1527985334e-01    1.0121640625e+05
    1.1528979242e-01    1.0121639844e+05
    1.1529973149e-01    1.0121639844e+05
    1.1530997604e-01    1.0121639844e+05
    1.1531990767e-01    1.0121638281e+05
    1.1532984674e-01    1.0121638281e+05
    1.1533978581e-01    1.0121637500e+05
    1.1534971744e-01    1.0121637500e+05
    1.1535996199e-01    1.0121636719e+05
    1.1536990106e-01    1.0121636719e+05
    1.1537984014e-01    1.0121635156e+05
    1.1538977176e-01    1.0121635156e+05
    1.1539971083e-01    1.0121635156e+05
    1.1540995538e-01    1.0121635156e+05
    1.1541989446e-01    1.0121634375e+05
    1.1542982608e-01    1.0121633594e+05
    1.1543976516e-01    1.0121633594e+05
    1.1544970423e-01    1.0121633594e+05
    1.1545994878e-01    1.0121633594e+05
    1.1546988040e-01    1.0121632031e+05
    1.1547981948e-01    1.0121632031e+05
    1.1548975855e-01    1.0121631250e+05
    1.1549969018e-01    1.0121631250e+05
    1.1550994217e-01    1.0121630469e+05
    1.1551987380e-01    1.0121628906e+05
    1.1552981287e-01    1.0121628906e+05
    1.1553974450e-01    1.0121628906e+05
    1.1554999650e-01    1.0121628906e+05
    1.1555992812e-01    1.0121628125e+05
    1.1556986719e-01    1.0121628125e+05
    1.1557979882e-01    1.0121627344e+05
    1.1558973789e-01    1.0121627344e+05
    1.1559998244e-01    1.0121627344e+05
    1.1560992151e-01    1.0121625781e+05
    1.1561985314e-01    1.0121625781e+05
    1.1562979221e-01    1.0121625000e+05
    1.1563973129e-01    1.0121625000e+05
    1.1564997584e-01    1.0121624219e+05
    1.1565991491e-01    1.0121624219e+05
    1.1566984653e-01    1.0121622656e+05
    1.1567978561e-01    1.0121622656e+05
    1.1568971723e-01    1.0121622656e+05
    1.1569996923e-01    1.0121622656e+05
    1.1570990086e-01    1.0121621875e+05
    1.1571983993e-01    1.0121621875e+05
    1.1572977155e-01    1.0121621094e+05
    1.1573971063e-01    1.0121621094e+05
    1.1574995518e-01    1.0121621094e+05
    1.1575989425e-01    1.0121619531e+05
    1.1576983333e-01    1.0121619531e+05
    1.1577976495e-01    1.0121618750e+05
    1.1578970402e-01    1.0121618750e+05
    1.1579994857e-01    1.0121617969e+05
    1.1580988765e-01    1.0121617969e+05
    1.1581981927e-01    1.0121616406e+05
    1.1582975835e-01    1.0121616406e+05
    1.1583968997e-01    1.0121616406e+05
    1.1584994197e-01    1.0121616406e+05
    1.1585987359e-01    1.0121615625e+05
    1.1586981267e-01    1.0121614844e+05
    1.1587974429e-01    1.0121614844e+05
    1.1588999629e-01    1.0121614844e+05
    1.1589992791e-01    1.0121614844e+05
    1.1590986699e-01    1.0121613281e+05
    1.1591980606e-01    1.0121613281e+05
    1.1592973769e-01    1.0121612500e+05
    1.1593998224e-01    1.0121612500e+05
    1.1594992131e-01    1.0121611719e+05
    1.1595986038e-01    1.0121611719e+05
    1.1596979201e-01    1.0121610156e+05
    1.1597973108e-01    1.0121610156e+05
    1.1598997563e-01    1.0121610156e+05
    1.1599991471e-01    1.0121610156e+05
    1.1600984633e-01    1.0121609375e+05
    1.1601978540e-01    1.0121608594e+05
    1.1602972448e-01    1.0121608594e+05
    1.1603996903e-01    1.0121608594e+05
    1.1604990065e-01    1.0121608594e+05
    1.1605983973e-01    1.0121607031e+05
    1.1606977880e-01    1.0121607031e+05
    1.1607971042e-01    1.0121606250e+05
    1.1608995497e-01    1.0121605469e+05
    1.1609989405e-01    1.0121605469e+05
    1.1610983312e-01    1.0121603906e+05
    1.1611976475e-01    1.0121603906e+05
    1.1612970382e-01    1.0121603906e+05
    1.1613994837e-01    1.0121603906e+05
    1.1614988744e-01    1.0121603125e+05
    1.1615981907e-01    1.0121603125e+05
    1.1616975814e-01    1.0121602344e+05
    1.1617969722e-01    1.0121602344e+05
    1.1618994176e-01    1.0121602344e+05
    1.1619987339e-01    1.0121602344e+05
    1.1620981246e-01    1.0121600781e+05
    1.1621975154e-01    1.0121600000e+05
    1.1622999609e-01    1.0121600000e+05
    1.1623993516e-01    1.0121599219e+05
    1.1624986678e-01    1.0121599219e+05
    1.1625980586e-01    1.0121597656e+05
    1.1626973748e-01    1.0121597656e+05
    1.1627998948e-01    1.0121597656e+05
    1.1628992110e-01    1.0121597656e+05
    1.1629986018e-01    1.0121597656e+05
    1.1630979180e-01    1.0121596875e+05
    1.1631973088e-01    1.0121596875e+05
    1.1632997543e-01    1.0121596094e+05
    1.1633991450e-01    1.0121596094e+05
    1.1634985358e-01    1.0121596094e+05
    1.1635978520e-01    1.0121594531e+05
    1.1636972427e-01    1.0121594531e+05
    1.1637996882e-01    1.0121593750e+05
    1.1638990790e-01    1.0121593750e+05
    1.1639983952e-01    1.0121592969e+05
    1.1640977859e-01    1.0121592969e+05
    1.1641971022e-01    1.0121591406e+05
    1.1642996222e-01    1.0121591406e+05
    1.1643989384e-01    1.0121591406e+05
    1.1644983292e-01    1.0121590625e+05
    1.1645976454e-01    1.0121590625e+05
    1.1646970361e-01    1.0121589844e+05
    1.1647994816e-01    1.0121589844e+05
    1.1648988724e-01    1.0121589844e+05
    1.1649982631e-01    1.0121589844e+05
    1.1650975794e-01    1.0121588281e+05
    1.1651969701e-01    1.0121588281e+05
    1.1652994156e-01    1.0121587500e+05
    1.1653988063e-01    1.0121587500e+05
    1.1654981226e-01    1.0121586719e+05
    1.1655975133e-01    1.0121586719e+05
    1.1656999588e-01    1.0121585156e+05
    1.1657993495e-01    1.0121585156e+05
    1.1658986658e-01    1.0121585156e+05
    1.1659980565e-01    1.0121585156e+05
    1.1660974473e-01    1.0121584375e+05
    1.1661998928e-01    1.0121584375e+05
    1.1662992090e-01    1.0121583594e+05
    1.1663985997e-01    1.0121583594e+05
    1.1664979905e-01    1.0121583594e+05
    1.1665973067e-01    1.0121583594e+05
    1.1666998267e-01    1.0121582031e+05
    1.1667991430e-01    1.0121582031e+05
    1.1668985337e-01    1.0121581250e+05
    1.1669978499e-01    1.0121581250e+05
    1.1670972407e-01    1.0121580469e+05
    1.1671996862e-01    1.0121580469e+05
    1.1672990769e-01    1.0121578906e+05
    1.1673983932e-01    1.0121578906e+05
    1.1674977839e-01    1.0121578906e+05
    1.1675971746e-01    1.0121578125e+05
    1.1676996201e-01    1.0121578125e+05
    1.1677989364e-01    1.0121577344e+05
    1.1678983271e-01    1.0121577344e+05
    1.1679977179e-01    1.0121577344e+05
    1.1680970341e-01    1.0121577344e+05
    1.1681995541e-01    1.0121575781e+05
    1.1682988703e-01    1.0121575781e+05
    1.1683982611e-01    1.0121575000e+05
    1.1684975773e-01    1.0121575000e+05
    1.1685969681e-01    1.0121574219e+05
    1.1686994135e-01    1.0121574219e+05
    1.1687988043e-01    1.0121572656e+05
    1.1688981205e-01    1.0121572656e+05
    1.1689975113e-01    1.0121572656e+05
    1.1690999568e-01    1.0121572656e+05
    1.1691993475e-01    1.0121571875e+05
    1.1692987382e-01    1.0121571094e+05
    1.1693980545e-01    1.0121571094e+05
    1.1694974452e-01    1.0121571094e+05
    1.1695998907e-01    1.0121571094e+05
    1.1696992815e-01    1.0121569531e+05
    1.1697985977e-01    1.0121569531e+05
    1.1698979884e-01    1.0121568750e+05
    1.1699973047e-01    1.0121567969e+05
    1.1700998247e-01    1.0121567969e+05
    1.1701991409e-01    1.0121566406e+05
    1.1702985317e-01    1.0121566406e+05
    1.1703979224e-01    1.0121566406e+05
    1.1704972386e-01    1.0121566406e+05
    1.1705996841e-01    1.0121566406e+05
    1.1706990749e-01    1.0121565625e+05
    1.1707984656e-01    1.0121565625e+05
    1.1708977818e-01    1.0121564844e+05
    1.1709971726e-01    1.0121564844e+05
    1.1710996181e-01    1.0121564844e+05
    1.1711990088e-01    1.0121564844e+05
    1.1712983251e-01    1.0121564844e+05
    1.1713977158e-01    1.0121563281e+05
    1.1714970320e-01    1.0121563281e+05
    1.1715995520e-01    1.0121562500e+05
    1.1716988683e-01    1.0121561719e+05
    1.1717982590e-01    1.0121561719e+05
    1.1718976498e-01    1.0121560156e+05
    1.1719969660e-01    1.0121560156e+05
    1.1720994115e-01    1.0121560156e+05
    1.1721988022e-01    1.0121560156e+05
    1.1722981930e-01    1.0121559375e+05
    1.1723975092e-01    1.0121559375e+05
    1.1725000292e-01    1.0121558594e+05
    1.1725993454e-01    1.0121558594e+05
    1.1726987362e-01    1.0121558594e+05
    1.1727980524e-01    1.0121558594e+05
    1.1728974432e-01    1.0121557031e+05
    1.1729998887e-01    1.0121557031e+05
    1.1730992794e-01    1.0121556250e+05
    1.1731985956e-01    1.0121555469e+05
    1.1732979864e-01    1.0121555469e+05
    1.1733973771e-01    1.0121553906e+05
    1.1734998226e-01    1.0121553906e+05
    1.1735992134e-01    1.0121553906e+05
    1.1736985296e-01    1.0121553125e+05
    1.1737979203e-01    1.0121553125e+05
    1.1738972366e-01    1.0121552344e+05
    1.1739997566e-01    1.0121552344e+05
    1.1740990728e-01    1.0121552344e+05
    1.1741984636e-01    1.0121552344e+05
    1.1742977798e-01    1.0121552344e+05
    1.1743971705e-01    1.0121552344e+05
    1.1744996160e-01    1.0121550781e+05
    1.1745990068e-01    1.0121550781e+05
    1.1746983230e-01    1.0121550000e+05
    1.1747977138e-01    1.0121549219e+05
    1.1748971045e-01    1.0121547656e+05
    1.1749995500e-01    1.0121547656e+05
    1.1750989407e-01    1.0121547656e+05
    1.1751982570e-01    1.0121546875e+05
    1.1752976477e-01    1.0121546875e+05
    1.1753969640e-01    1.0121546094e+05
    1.1754994839e-01    1.0121546094e+05
    1.1755988002e-01    1.0121546094e+05
    1.1756981909e-01    1.0121546094e+05
    1.1757975072e-01    1.0121546094e+05
    1.1758968979e-01    1.0121544531e+05
    1.1759993434e-01    1.0121544531e+05
    1.1760987341e-01    1.0121543750e+05
    1.1761981249e-01    1.0121543750e+05
    1.1762974411e-01    1.0121542969e+05
    1.1763998866e-01    1.0121542969e+05
    1.1764992774e-01    1.0121541406e+05
    1.1765986681e-01    1.0121541406e+05
    1.1766979843e-01    1.0121541406e+05
    1.1767973751e-01    1.0121541406e+05
    1.1768998206e-01    1.0121541406e+05
    1.1769992113e-01    1.0121541406e+05
    1.1770985276e-01    1.0121541406e+05
    1.1771979183e-01    1.0121541406e+05
    1.1772973090e-01    1.0121540625e+05
    1.1773997545e-01    1.0121540625e+05
    1.1774990708e-01    1.0121539844e+05
    1.1775984615e-01    1.0121539844e+05
    1.1776978523e-01    1.0121539844e+05
    1.1777971685e-01    1.0121538281e+05
    1.1778996885e-01    1.0121538281e+05
    1.1779990047e-01    1.0121537500e+05
    1.1780983955e-01    1.0121536719e+05
    1.1781977117e-01    1.0121536719e+05
    1.1782971025e-01    1.0121535156e+05
    1.1783995479e-01    1.0121535156e+05
    1.1784989387e-01    1.0121535156e+05
    1.1785982549e-01    1.0121535156e+05
    1.1786976457e-01    1.0121535156e+05
    1.1787970364e-01    1.0121534375e+05
    1.1788994819e-01    1.0121534375e+05
    1.1789987981e-01    1.0121533594e+05
    1.1790981889e-01    1.0121533594e+05
    1.1791975796e-01    1.0121533594e+05
    1.1792968959e-01    1.0121532031e+05
    1.1793994159e-01    1.0121531250e+05
    1.1794987321e-01    1.0121530469e+05
    1.1795981228e-01    1.0121528906e+05
    1.1796974391e-01    1.0121528906e+05
    1.1797999591e-01    1.0121528906e+05
    1.1798992753e-01    1.0121528125e+05
    1.1799986660e-01    1.0121528125e+05
    1.1800979823e-01    1.0121528125e+05
    1.1801973730e-01    1.0121528125e+05
    1.1802998185e-01    1.0121528125e+05
    1.1803992093e-01    1.0121527344e+05
    1.1804986000e-01    1.0121527344e+05
    1.1805979162e-01    1.0121527344e+05
    1.1806973070e-01    1.0121527344e+05
    1.1807997525e-01    1.0121527344e+05
    1.1808991432e-01    1.0121527344e+05
    1.1809984595e-01    1.0121525781e+05
    1.1810978502e-01    1.0121525781e+05
    1.1811971664e-01    1.0121525000e+05
    1.1812996864e-01    1.0121525000e+05
    1.1813990027e-01    1.0121524219e+05
    1.1814983934e-01    1.0121524219e+05
    1.1815977842e-01    1.0121522656e+05
    1.1816971004e-01    1.0121522656e+05
    1.1817995459e-01    1.0121521875e+05
    1.1818989366e-01    1.0121521094e+05
    1.1819983274e-01    1.0121521094e+05
    1.1820976436e-01    1.0121521094e+05
    1.1821970344e-01    1.0121521094e+05
    1.1822994798e-01    1.0121519531e+05
    1.1823988706e-01    1.0121519531e+05
    1.1824981868e-01    1.0121519531e+05
    1.1825975776e-01    1.0121518750e+05
    1.1826969683e-01    1.0121517969e+05
    1.1827994138e-01    1.0121517969e+05
    1.1828987300e-01    1.0121516406e+05
    1.1829981208e-01    1.0121516406e+05
    1.1830975115e-01    1.0121516406e+05
    1.1831999570e-01    1.0121516406e+05
    1.1832993478e-01    1.0121515625e+05
    1.1833986640e-01    1.0121515625e+05
    1.1834980547e-01    1.0121515625e+05
    1.1835973710e-01    1.0121514844e+05
    1.1836998910e-01    1.0121514844e+05
    1.1837992072e-01    1.0121514844e+05
    1.1838985980e-01    1.0121513281e+05
    1.1839979142e-01    1.0121513281e+05
    1.1840973049e-01    1.0121513281e+05
    1.1841997504e-01    1.0121513281e+05
    1.1842991412e-01    1.0121513281e+05
    1.1843985319e-01    1.0121513281e+05
    1.1844978482e-01    1.0121512500e+05
    1.1845972389e-01    1.0121512500e+05
    1.1846996844e-01    1.0121511719e+05
    1.1847990751e-01    1.0121510156e+05
    1.1848983914e-01    1.0121510156e+05
    1.1849977821e-01    1.0121510156e+05
    1.1850971729e-01    1.0121509375e+05
    1.1851996183e-01    1.0121508594e+05
    1.1852989346e-01    1.0121508594e+05
    1.1853983253e-01    1.0121507031e+05
    1.1854977161e-01    1.0121507031e+05
    1.1855970323e-01    1.0121506250e+05
    1.1856995523e-01    1.0121506250e+05
    1.1857988685e-01    1.0121506250e+05
    1.1858982593e-01    1.0121506250e+05
    1.1859975755e-01    1.0121506250e+05
    1.1860969663e-01    1.0121505469e+05
    1.1861994117e-01    1.0121505469e+05
    1.1862988025e-01    1.0121505469e+05
    1.1863981187e-01    1.0121503906e+05
    1.1864975095e-01    1.0121503906e+05
    1.1865999550e-01    1.0121503906e+05
    1.1866993457e-01    1.0121503125e+05
    1.1867987365e-01    1.0121503125e+05
    1.1868980527e-01    1.0121502344e+05
    1.1869974434e-01    1.0121502344e+05
    1.1870998889e-01    1.0121502344e+05
    1.1871992797e-01    1.0121500781e+05
    1.1872985959e-01    1.0121500781e+05
    1.1873979867e-01    1.0121500000e+05
    1.1874973029e-01    1.0121499219e+05
    1.1875998229e-01    1.0121499219e+05
    1.1876991391e-01    1.0121499219e+05
    1.1877985299e-01    1.0121497656e+05
    1.1878979206e-01    1.0121497656e+05
    1.1879972368e-01    1.0121497656e+05
    1.1880996823e-01    1.0121497656e+05
    1.1881990731e-01    1.0121497656e+05
    1.1882984638e-01    1.0121497656e+05
    1.1883977801e-01    1.0121496875e+05
    1.1884971708e-01    1.0121496875e+05
    1.1885996163e-01    1.0121496094e+05
    1.1886990070e-01    1.0121496094e+05
    1.1887983233e-01    1.0121496094e+05
    1.1888977140e-01    1.0121496094e+05
    1.1889971048e-01    1.0121494531e+05
    1.1890995502e-01    1.0121494531e+05
    1.1891989410e-01    1.0121493750e+05
    1.1892982572e-01    1.0121493750e+05
    1.1893976480e-01    1.0121492969e+05
    1.1894969642e-01    1.0121492969e+05
    1.1895994842e-01    1.0121491406e+05
    1.1896988004e-01    1.0121491406e+05
    1.1897981912e-01    1.0121491406e+05
    1.1898975074e-01    1.0121491406e+05
    1.1899968982e-01    1.0121490625e+05
    1.1900993437e-01    1.0121490625e+05
    1.1901987344e-01    1.0121489844e+05
    1.1902981251e-01    1.0121489844e+05
    1.1903974414e-01    1.0121489844e+05
    1.1904998869e-01    1.0121489844e+05
    1.1905992776e-01    1.0121489844e+05
    1.1906986684e-01    1.0121488281e+05
    1.1907979846e-01    1.0121487500e+05
    1.1908973753e-01    1.0121487500e+05
    1.1909998208e-01    1.0121486719e+05
    1.1910992116e-01    1.0121486719e+05
    1.1911985278e-01    1.0121485156e+05
    1.1912979186e-01    1.0121485156e+05
    1.1913973093e-01    1.0121485156e+05
    1.1914997548e-01    1.0121485156e+05
    1.1915990710e-01    1.0121485156e+05
    1.1916984618e-01    1.0121484375e+05
    1.1917978525e-01    1.0121484375e+05
    1.1918971688e-01    1.0121483594e+05
    1.1919996887e-01    1.0121483594e+05
    1.1920990050e-01    1.0121483594e+05
    1.1921983957e-01    1.0121483594e+05
    1.1922977120e-01    1.0121482031e+05
    1.1923971027e-01    1.0121482031e+05
    1.1924995482e-01    1.0121481250e+05
    1.1925989389e-01    1.0121481250e+05
    1.1926983297e-01    1.0121480469e+05
    1.1927976459e-01    1.0121480469e+05
    1.1928970367e-01    1.0121478906e+05
    1.1929994822e-01    1.0121478906e+05
    1.1930988729e-01    1.0121478906e+05
    1.1931981891e-01    1.0121478906e+05
    1.1932975799e-01    1.0121478125e+05
    1.1933968961e-01    1.0121478125e+05
    1.1934994161e-01    1.0121477344e+05
    1.1935987324e-01    1.0121477344e+05
    1.1936981231e-01    1.0121477344e+05
    1.1937975138e-01    1.0121477344e+05
    1.1938999593e-01    1.0121477344e+05
    1.1939992756e-01    1.0121475781e+05
    1.1940986663e-01    1.0121475781e+05
    1.1941980571e-01    1.0121475000e+05
    1.1942973733e-01    1.0121475000e+05
    1.1943998933e-01    1.0121474219e+05
    1.1944992095e-01    1.0121474219e+05
    1.1945986003e-01    1.0121472656e+05
    1.1946979165e-01    1.0121472656e+05
    1.1947973073e-01    1.0121472656e+05
    1.1948997527e-01    1.0121472656e+05
    1.1949991435e-01    1.0121471875e+05
    1.1950985342e-01    1.0121471875e+05
    1.1951978505e-01    1.0121471094e+05
    1.1952972412e-01    1.0121471094e+05
    1.1953996867e-01    1.0121471094e+05
    1.1954990774e-01    1.0121471094e+05
    1.1955983937e-01    1.0121469531e+05
    1.1956977844e-01    1.0121469531e+05
    1.1957971007e-01    1.0121468750e+05
    1.1958996207e-01    1.0121468750e+05
    1.1959989369e-01    1.0121468750e+05
    1.1960983276e-01    1.0121467969e+05
    1.1961977184e-01    1.0121467969e+05
    1.1962970346e-01    1.0121466406e+05
    1.1963994801e-01    1.0121466406e+05
    1.1964988708e-01    1.0121466406e+05
    1.1965982616e-01    1.0121466406e+05
    1.1966975778e-01    1.0121465625e+05
    1.1967969686e-01    1.0121465625e+05
    1.1968994141e-01    1.0121464844e+05
    1.1969988048e-01    1.0121464844e+05
    1.1970981210e-01    1.0121464844e+05
    1.1971975118e-01    1.0121464844e+05
    1.1972999573e-01    1.0121463281e+05
    1.1973993480e-01    1.0121463281e+05
    1.1974987388e-01    1.0121462500e+05
    1.1975980550e-01    1.0121462500e+05
    1.1976974458e-01    1.0121461719e+05
    1.1977998912e-01    1.0121461719e+05
    1.1978992820e-01    1.0121460156e+05
    1.1979985982e-01    1.0121460156e+05
    1.1980979890e-01    1.0121460156e+05
    1.1981973052e-01    1.0121460156e+05
    1.1982998252e-01    1.0121460156e+05
    1.1983991414e-01    1.0121460156e+05
    1.1984985322e-01    1.0121459375e+05
    1.1985979229e-01    1.0121459375e+05
    1.1986972392e-01    1.0121458594e+05
    1.1987996846e-01    1.0121458594e+05
    1.1988990754e-01    1.0121458594e+05
    1.1989984661e-01    1.0121457031e+05
    1.1990977824e-01    1.0121457031e+05
    1.1991971731e-01    1.0121456250e+05
    1.1992996186e-01    1.0121456250e+05
    1.1993990093e-01    1.0121455469e+05
    1.1994983256e-01    1.0121455469e+05
    1.1995977163e-01    1.0121453906e+05
    1.1996971071e-01    1.0121453906e+05
    1.1997995526e-01    1.0121453906e+05
    1.1998989433e-01    1.0121453906e+05
    1.1999982595e-01    1.0121453906e+05
endcurve
