Curveplot
LS-DYNA keyword deck by LS-PrePost                          
Time
Pressure
Defined Connection
Pressure @ 1 #pts=12001
* Minval=     2.2198187256e+02 at time=         0.0027297044
* Maxval=     5.7654505000e+06 at time=         0.0002699915
    0.0000000000e+00    1.0120000000e+05
    9.9485323517e-06    1.0120000000e+05
    1.9897443053e-05    1.0120000000e+05
    2.9969009120e-05    1.0120000000e+05
    3.9987473428e-05    1.0120000000e+05
    4.9979436881e-05    1.0120000000e+05
    5.9963145759e-05    1.0120000000e+05
    6.9937123044e-05    1.0120000000e+05
    7.9984281911e-05    1.0120000000e+05
    8.9989858679e-05    1.0120000000e+05
    9.9948716525e-05    1.0120000000e+05
    1.0998377547e-04    1.0120000000e+05
    1.1994111264e-04    1.0120000000e+05
    1.2995507859e-04    1.0120000000e+05
    1.3994371693e-04    1.0120000000e+05
    1.4997288235e-04    1.0120000000e+05
    1.5995735885e-04    1.0120000000e+05
    1.6996593331e-04    1.0120000000e+05
    1.7999083502e-04    1.0120000000e+05
    1.8994236598e-04    1.0120000000e+05
    1.9997745403e-04    1.0120000000e+05
    2.0992087957e-04    1.0120000000e+05
    2.1993488190e-04    1.0120000000e+05
    2.2992774029e-04    1.0120000000e+05
    2.3998091638e-04    1.0120000000e+05
    2.4999928428e-04    1.0120000000e+05
    2.5997433113e-04    1.0120000000e+05
    2.6999152033e-04    5.7654505000e+06
    2.7995006531e-04    5.0178450000e+06
    2.8993055457e-04    4.4394910000e+06
    2.9992024065e-04    3.9895010000e+06
    3.0991676613e-04    3.6351970000e+06
    3.1991835567e-04    3.1361837500e+06
    3.2992297201e-04    2.4382077500e+06
    3.3992883982e-04    7.5365868750e+05
    3.4993211739e-04    1.0764635156e+05
    3.5993539495e-04    1.1369571875e+05
    3.6993465619e-04    1.1866837500e+05
    3.7992803846e-04    1.2256680469e+05
    3.8991210749e-04    1.2530952344e+05
    3.9999393630e-04    1.2695964844e+05
    4.0996095049e-04    1.2752490625e+05
    4.1991530452e-04    1.2714133594e+05
    4.2996526463e-04    1.2583991406e+05
    4.3999950867e-04    1.2379536719e+05
    4.4990819879e-04    1.2112969531e+05
    4.5991034131e-04    1.1789275000e+05
    4.6989333350e-04    1.1424022656e+05
    4.7997033107e-04    1.1023078906e+05
    4.8990827054e-04    1.0606069531e+05
    4.9994053552e-04    1.0171427344e+05
    5.0994835328e-04    9.7315351562e+04
    5.1992974477e-04    9.2921585938e+04
    5.2988284733e-04    8.8587273438e+04
    5.3992500762e-04    8.4297531250e+04
    5.4993934464e-04    8.0135906250e+04
    5.5992184207e-04    7.6133421875e+04
    5.6999537628e-04    7.2248328125e+04
    5.7990930509e-04    6.8593562500e+04
    5.8991264086e-04    6.5087074219e+04
    5.9987360146e-04    6.1770402344e+04
    6.0992914950e-04    5.8597769531e+04
    6.1994540738e-04    5.5618234375e+04
    6.2992010498e-04    5.2829503906e+04
    6.3998415135e-04    5.0186207031e+04
    6.4987048972e-04    4.7742875000e+04
    6.5997760976e-04    4.5390175781e+04
    6.6990358755e-04    4.3214589844e+04
    6.7991798278e-04    4.1148609375e+04
    6.8988226121e-04    3.9215187500e+04
    6.9993431680e-04    3.7380628906e+04
    7.0993386908e-04    3.5662570312e+04
    7.1987870615e-04    3.4051195312e+04
    7.2991021443e-04    3.2515974609e+04
    7.3988118675e-04    3.1072623047e+04
    7.4994214810e-04    2.9693671875e+04
    7.5994338840e-04    2.8395123047e+04
    7.6988223009e-04    2.7171677734e+04
    7.7990652062e-04    2.6001109375e+04
    7.8986567678e-04    2.4897259766e+04
    7.9991004895e-04    2.3840195312e+04
    8.0988655100e-04    2.2843041016e+04
    8.1994797802e-04    2.1887587891e+04
    8.2993478281e-04    2.0986083984e+04
    8.3985202946e-04    2.0134226562e+04
    8.4985222202e-04    1.9316439453e+04
    8.5993664106e-04    1.8531332031e+04
    8.6994422600e-04    1.7789378906e+04
    8.7987212464e-04    1.7088017578e+04
    8.8988215430e-04    1.6414000000e+04
    8.9997530449e-04    1.5766315430e+04
    9.0998521773e-04    1.5153941406e+04
    9.1990863439e-04    1.4574738281e+04
    9.2991284328e-04    1.4017453125e+04
    9.3999609817e-04    1.3481406250e+04
    9.4998878194e-04    1.2974301758e+04
    9.5989089459e-04    1.2494249023e+04
    9.6987211145e-04    1.2031862305e+04
    9.7993353847e-04    1.1586511719e+04
    9.8989764228e-04    1.1164968750e+04
    9.9994102493e-04    1.0758711914e+04
    1.0098832427e-03    1.0374057617e+04
    1.0199039243e-03    1.0003110352e+04
    1.0298199486e-03    9.6517656250e+03
    1.0399990715e-03    9.3065546875e+03
    1.0498851771e-03    8.9855292969e+03
    1.0598476510e-03    8.6755332031e+03
    1.0698876576e-03    8.3761806641e+03
    1.0798145086e-03    8.0924667969e+03
    1.0898177279e-03    7.8183125000e+03
    1.0998985963e-03    7.5533950195e+03
    1.1098616524e-03    7.3022446289e+03
    1.1198973516e-03    7.0594804688e+03
    1.1298086029e-03    6.8293393555e+03
    1.1398015777e-03    6.6065034180e+03
    1.1498710373e-03    6.3908881836e+03
    1.1598144192e-03    6.1863618164e+03
    1.1698331218e-03    5.9883334961e+03
    1.1799280765e-03    5.7965922852e+03
    1.1898920638e-03    5.6146694336e+03
    1.1999313720e-03    5.4384018555e+03
    1.2098356383e-03    5.2711196289e+03
    1.2198137119e-03    5.1089335938e+03
    1.2298673391e-03    4.9516811523e+03
    1.2399969855e-03    4.7992138672e+03
    1.2499857694e-03    4.6544868164e+03
    1.2598301983e-03    4.5170742188e+03
    1.2699685758e-03    4.3807431641e+03
    1.2799612014e-03    4.2513007812e+03
    1.2898043497e-03    4.1283759766e+03
    1.2999463361e-03    4.0062722168e+03
    1.3099367497e-03    3.8903239746e+03
    1.3197729131e-03    3.7801875000e+03
    1.3299122220e-03    3.6706611328e+03
    1.3398962328e-03    3.5666198730e+03
    1.3499531196e-03    3.4654797363e+03
    1.3598494697e-03    3.3693964844e+03
    1.3698196271e-03    3.2759089355e+03
    1.3798641739e-03    3.1849484863e+03
    1.3899838086e-03    3.0964504395e+03
    1.3999355724e-03    3.0123737793e+03
    1.4099605614e-03    2.9305197754e+03
    1.4198145363e-03    2.8527331543e+03
    1.4299899340e-03    2.7750783691e+03
    1.4399910579e-03    2.7012944336e+03
    1.4498142991e-03    2.6311765137e+03
    1.4599644346e-03    2.5610844727e+03
    1.4699343592e-03    2.4944802246e+03
    1.4799783239e-03    2.4295422363e+03
    1.4898376539e-03    2.3678293457e+03
    1.4997695107e-03    2.3076196289e+03
    1.5097751748e-03    2.2488757324e+03
    1.5198559267e-03    2.1915590820e+03
    1.5297442442e-03    2.1370915527e+03
    1.5399757540e-03    2.0824953613e+03
    1.5497416025e-03    2.0319936523e+03
    1.5598528553e-03    1.9813013916e+03
    1.5697649214e-03    1.9331278076e+03
    1.5797503293e-03    1.8860633545e+03
    1.5898110578e-03    1.8400781250e+03
    1.5999480383e-03    1.7951488037e+03
    1.6098776832e-03    1.7524556885e+03
    1.6198817175e-03    1.7107152100e+03
    1.6299613053e-03    1.6699049072e+03
    1.6398258740e-03    1.6311336670e+03
    1.6497555189e-03    1.5932327881e+03
    1.6597685171e-03    1.5561221924e+03
    1.6698585823e-03    1.5198081055e+03
    1.6797259450e-03    1.4853129883e+03
    1.6899702605e-03    1.4505269775e+03
    1.6999897780e-03    1.4174827881e+03
    1.7097787932e-03    1.3861002197e+03
    1.7199509311e-03    1.3544035645e+03
    1.7298907042e-03    1.3243002930e+03
    1.7399064964e-03    1.2948072510e+03
    1.7499995884e-03    1.2659116211e+03
    1.7598522827e-03    1.2384768066e+03
    1.7697800649e-03    1.2115795898e+03
    1.7797843320e-03    1.1852095947e+03
    1.7898663646e-03    1.1593562012e+03
    1.7996988026e-03    1.1348177490e+03
    1.8099381123e-03    1.1099497070e+03
    1.8199256156e-03    1.0863465576e+03
    1.8299910007e-03    1.0631898193e+03
    1.8397971289e-03    1.0412204590e+03
    1.8496788107e-03    1.0196528320e+03
    1.8599791219e-03    9.9776153564e+02
    1.8696691841e-03    9.7770294189e+02
    1.8797870725e-03    9.5729315186e+02
    1.8899866845e-03    9.3725506592e+02
    1.8999135355e-03    9.1825384521e+02
    1.9099195488e-03    8.9958642578e+02
    1.9196446519e-03    8.8189593506e+02
    1.9298105035e-03    8.6386596680e+02
    1.9396925345e-03    8.4677947998e+02
    1.9496541936e-03    8.2998144531e+02
    1.9596966449e-03    8.1346661377e+02
    1.9698217511e-03    7.9723052979e+02
    1.9796513952e-03    7.8185418701e+02
    1.9899434410e-03    7.6615014648e+02
    1.9999372307e-03    7.5127740479e+02
    2.0096215885e-03    7.3720770264e+02
    2.0197778940e-03    7.2280615234e+02
    2.0296266302e-03    7.0917498779e+02
    2.0399559289e-03    6.9522271729e+02
    2.0499727689e-03    6.8201916504e+02
    2.0596690010e-03    6.6953619385e+02
    2.0698539447e-03    6.5673028564e+02
    2.0797152538e-03    6.4462268066e+02
    2.0896599162e-03    6.3269433594e+02
    2.0996897947e-03    6.2094274902e+02
    2.1098067518e-03    6.0936456299e+02
    2.1195856389e-03    5.9842932129e+02
    2.1298762877e-03    5.8718554688e+02
    2.1398214158e-03    5.7657000732e+02
    2.1498263814e-03    5.6612890625e+02
    2.1598795429e-03    5.5587152100e+02
    2.1699764766e-03    5.4580773926e+02
    2.1796603687e-03    5.3636108398e+02
    2.1898231935e-03    5.2668847656e+02
    2.1995636635e-03    5.1761224365e+02
    2.2097574547e-03    5.0830529785e+02
    2.2199582309e-03    4.9921176147e+02
    2.2297550458e-03    4.9069287109e+02
    2.2399425507e-03    4.8197378540e+02
    2.2497365717e-03    4.7381945801e+02
    2.2599564400e-03    4.6547766113e+02
    2.2696992382e-03    4.5767077637e+02
    2.2799046710e-03    4.4969592285e+02
    2.2896784358e-03    4.4223764038e+02
    2.2998752538e-03    4.3459164429e+02
    2.3096448276e-03    4.2744601440e+02
    2.3198225535e-03    4.2011996460e+02
    2.3299918976e-03    4.1296640015e+02
    2.3397400510e-03    4.0626138306e+02
    2.3499627132e-03    3.9940371704e+02
    2.3596556857e-03    3.9299890137e+02
    2.3698259611e-03    3.8641726685e+02
    2.3796181194e-03    3.8023867798e+02
    2.3897821084e-03    3.7392263794e+02
    2.3999256082e-03    3.6775711060e+02
    2.4096607231e-03    3.6198596191e+02
    2.4198910687e-03    3.5601419067e+02
    2.4296748452e-03    3.5042318726e+02
    2.4399205577e-03    3.4468948364e+02
    2.4497681297e-03    3.3930850220e+02
    2.4595961440e-03    3.3400698853e+02
    2.4699028581e-03    3.2858401489e+02
    2.4797781371e-03    3.2347528076e+02
    2.4896536488e-03    3.1846990967e+02
    2.4995603599e-03    3.1354891968e+02
    2.5099599734e-03    3.0850363159e+02
    2.5198890362e-03    3.0376397705e+02
    2.5298134424e-03    2.9911273193e+02
    2.5397336576e-03    2.9455169678e+02
    2.5496522430e-03    2.9008221436e+02
    2.5595619809e-03    2.8570645142e+02
    2.5699017569e-03    2.8122436523e+02
    2.5797728449e-03    2.7702957153e+02
    2.5896111038e-03    2.7292694092e+02
    2.5998575147e-03    2.6873236084e+02
    2.6096159127e-03    2.6481365967e+02
    2.6197656989e-03    2.6081274414e+02
    2.6298488956e-03    2.5691287231e+02
    2.6398589835e-03    2.5311334229e+02
    2.6497978251e-03    2.4941040039e+02
    2.6596649550e-03    2.4580113220e+02
    2.6698855218e-03    2.4213194275e+02
    2.6796136517e-03    2.3870295715e+02
    2.6896931231e-03    2.3521434021e+02
    2.6997001842e-03    2.3181384277e+02
    2.7096359991e-03    2.2849848938e+02
    2.7199110482e-03    2.2513240051e+02
    2.7297043707e-03    2.2198187256e+02
    2.7398306411e-03    8.0043105469e+03
    2.7498847339e-03    2.3995490234e+04
    2.7598668821e-03    2.4379966797e+04
    2.7697782498e-03    2.4756373047e+04
    2.7796186041e-03    2.5125423828e+04
    2.7897784021e-03    2.5502416016e+04
    2.7998636942e-03    2.5872476562e+04
    2.8098754119e-03    2.6235544922e+04
    2.8198140208e-03    2.6592103516e+04
    2.8296799865e-03    2.6942892578e+04
    2.8398500290e-03    2.7301890625e+04
    2.8499441687e-03    2.7656427734e+04
    2.8599626385e-03    2.8007490234e+04
    2.8699068353e-03    2.8355681641e+04
    2.8797772247e-03    2.8701125000e+04
    2.8899358585e-03    2.9056587891e+04
    2.8996579349e-03    2.9396927734e+04
    2.9096635990e-03    2.9747318359e+04
    2.9199463315e-03    3.0107466797e+04
    2.9297973961e-03    3.0452572266e+04
    2.9399208724e-03    3.0807226562e+04
    2.9499644879e-03    3.1159015625e+04
    2.9599287082e-03    3.1508150391e+04
    2.9698142316e-03    3.1854896484e+04
    2.9799577314e-03    3.2210822266e+04
    2.9896844644e-03    3.2551916016e+04
    2.9999965336e-03    3.2913449219e+04
    3.0098925345e-03    3.3260636719e+04
    3.0197072774e-03    3.3605250000e+04
    3.0297639314e-03    3.3958375000e+04
    3.0397346709e-03    3.4308324219e+04
    3.0499368440e-03    3.4666355469e+04
    3.0597336590e-03    3.5010230469e+04
    3.0697574839e-03    3.5362210938e+04
    3.0796912033e-03    3.5711078125e+04
    3.0898419209e-03    3.6067523438e+04
    3.0998974107e-03    3.6420558594e+04
    3.1098581385e-03    3.6770238281e+04
    3.1197243370e-03    3.7116640625e+04
    3.1297907699e-03    3.7470125000e+04
    3.1397570856e-03    3.7820187500e+04
    3.1499124598e-03    3.8177261719e+04
    3.1599623617e-03    3.8530859375e+04
    3.1699065585e-03    3.8880496094e+04
    3.1797448173e-03    3.9226054688e+04
    3.1897537410e-03    3.9577605469e+04
    3.1999237835e-03    3.9935109375e+04
    3.2099755481e-03    4.0288750000e+04
    3.2199081033e-03    4.0638511719e+04
    3.2299852464e-03    4.0993718750e+04
    3.2399357297e-03    4.1344613281e+04
    3.2497590873e-03    4.1690742188e+04
    3.2599612605e-03    4.2049875000e+04
    3.2697711140e-03    4.2395289062e+04
    3.2799364999e-03    4.2753734375e+04
    3.2899496146e-03    4.3107214844e+04
    3.2998085953e-03    4.3455355469e+04
    3.3099811990e-03    4.3814562500e+04
    3.3199801110e-03    4.4167781250e+04
    3.3298032358e-03    4.4515062500e+04
    3.3398913220e-03    4.4871972656e+04
    3.3499971032e-03    4.5229730469e+04
    3.3598898444e-03    4.5580171875e+04
    3.3699802589e-03    4.5937746094e+04
    3.3798268996e-03    4.6286886719e+04
    3.3898164984e-03    4.6641453125e+04
    3.3999062143e-03    4.6999984375e+04
    3.4098629840e-03    4.7354250000e+04
    3.4198297653e-03    4.7709167969e+04
    3.4299141262e-03    4.8068359375e+04
    3.4398538992e-03    4.8422582031e+04
    3.4498579334e-03    4.8779550781e+04
    3.4598738421e-03    4.9137527344e+04
    3.4699591342e-03    4.9498714844e+04
    3.4799065907e-03    4.9856167969e+04
    3.4899641760e-03    5.0213921875e+04
    3.4999190830e-03    5.0568464844e+04
    3.5099624656e-03    5.0927546875e+04
    3.5198887344e-03    5.1283332031e+04
    3.5298673902e-03    5.1641312500e+04
    3.5399291664e-03    5.2003511719e+04
    3.5498894285e-03    5.2360609375e+04
    3.5599856637e-03    5.2723855469e+04
    3.5698490683e-03    5.3079746094e+04
    3.5799378529e-03    5.3443687500e+04
    3.5899593495e-03    5.3805714844e+04
    3.5998935346e-03    5.4165402344e+04
    3.6099422723e-03    5.4529574219e+04
    3.6199879833e-03    5.4893121094e+04
    3.6298958585e-03    5.5252050781e+04
    3.6399387754e-03    5.5616488281e+04
    3.6498669069e-03    5.5978238281e+04
    3.6599072628e-03    5.6345468750e+04
    3.6698142067e-03    5.6708058594e+04
    3.6798198707e-03    5.7074058594e+04
    3.6898846738e-03    5.7442449219e+04
    3.6998372525e-03    5.7807363281e+04
    3.7098512985e-03    5.8175550781e+04
    3.7199314684e-03    5.8546855469e+04
    3.7298724055e-03    5.8913582031e+04
    3.7398634013e-03    5.9282628906e+04
    3.7499284372e-03    5.9654917969e+04
    3.7598209456e-03    6.0021089844e+04
    3.7699979730e-03    6.0398035156e+04
    3.7799947895e-03    6.0769734375e+04
    3.7898628507e-03    6.1136937500e+04
    3.7999642082e-03    6.1514496094e+04
    3.8099046797e-03    6.1886394531e+04
    3.8198931143e-03    6.2260652344e+04
    3.8299208973e-03    6.2636769531e+04
    3.8397959433e-03    6.3007562500e+04
    3.8498954382e-03    6.3387832031e+04
    3.8598503452e-03    6.3763730469e+04
    3.8698324934e-03    6.4140871094e+04
    3.8798525929e-03    6.4520550781e+04
    3.8899141364e-03    6.4902730469e+04
    3.8999971002e-03    6.5286199219e+04
    3.9099333808e-03    6.5664859375e+04
    3.9198538288e-03    6.6045109375e+04
    3.9298590273e-03    6.6426679688e+04
    3.9398767985e-03    6.6809335938e+04
    3.9499085397e-03    6.7199226562e+04
    3.9598001167e-03    6.7583742188e+04
    3.9698812179e-03    6.7966039062e+04
    3.9798328653e-03    6.8344468750e+04
    3.9897779934e-03    6.8742828125e+04
    3.9999727160e-03    6.9154312500e+04
    4.0097995661e-03    6.9523648438e+04
    4.0197987109e-03    6.9888882812e+04
    4.0299049579e-03    7.0288257812e+04
    4.0399958380e-03    7.0719632812e+04
    4.0498692542e-03    7.1128554688e+04
    4.0598325431e-03    7.1507851562e+04
    4.0699872188e-03    7.1879390625e+04
    4.0799784474e-03    7.2256976562e+04
    4.0899910964e-03    7.2659710938e+04
    4.0997741744e-03    7.3070585938e+04
    4.1098562069e-03    7.3497710938e+04
    4.1199298576e-03    7.3915437500e+04
    4.1298130527e-03    7.4310265625e+04
    4.1399709880e-03    7.4708570312e+04
    4.1498932987e-03    7.5103015625e+04
    4.1598556563e-03    7.5508007812e+04
    4.1698436253e-03    7.5917296875e+04
    4.1798441671e-03    7.6326765625e+04
    4.1898731142e-03    7.6738054688e+04
    4.1999234818e-03    7.7151671875e+04
    4.2099948041e-03    7.7567218750e+04
    4.2198421434e-03    7.7974835938e+04
    4.2299493216e-03    7.8394640625e+04
    4.2398362420e-03    7.8806398438e+04
    4.2499755509e-03    7.9229375000e+04
    4.2598890141e-03    7.9643617188e+04
    4.2698201723e-03    8.0059507812e+04
    4.2797629721e-03    8.0479140625e+04
    4.2899553664e-03    8.0914648438e+04
    4.2999209836e-03    8.1349125000e+04
    4.3098959140e-03    8.1790039062e+04
    4.3198768981e-03    8.2227953125e+04
    4.3298648670e-03    8.2656906250e+04
    4.3398598209e-03    8.3075156250e+04
    4.3498589657e-03    8.3494164062e+04
    4.3598604389e-03    8.3930109375e+04
    4.3698623776e-03    8.4381007812e+04
    4.3798652478e-03    8.4832453125e+04
    4.3898676522e-03    8.5278859375e+04
    4.3998705223e-03    8.5720742188e+04
    4.4098729268e-03    8.6157828125e+04
    4.4198753312e-03    8.6598828125e+04
    4.4298777357e-03    8.7056210938e+04
    4.4398792088e-03    8.7523367188e+04
    4.4498806819e-03    8.7979437500e+04
    4.4598812237e-03    8.8422898438e+04
    4.4698808342e-03    8.8875351562e+04
    4.4798795134e-03    8.9346992188e+04
    4.4898767956e-03    8.9821023438e+04
    4.4998740777e-03    9.0281789062e+04
    4.5098685659e-03    9.0739875000e+04
    4.5198611915e-03    9.1214460938e+04
    4.5298570767e-03    9.1700164062e+04
    4.5398497023e-03    9.2174976562e+04
    4.5498451218e-03    9.2643195312e+04
    4.5598461293e-03    9.3127804688e+04
    4.5698527247e-03    9.3623476562e+04
    4.5798625797e-03    9.4108601562e+04
    4.5898794197e-03    9.4592742188e+04
    4.5999060385e-03    9.5094023438e+04
    4.6099401079e-03    9.5598273438e+04
    4.6199760400e-03    9.6093289062e+04
    4.6297810040e-03    9.6585843750e+04
    4.6398411505e-03    9.7104601562e+04
    4.6499026939e-03    9.7617031250e+04
    4.6599730849e-03    9.8129289062e+04
    4.6698120423e-03    9.8644367188e+04
    4.6799010597e-03    9.9173867188e+04
    4.6899933368e-03    9.9699500000e+04
    4.6998537146e-03    1.0022427344e+05
    4.7099706717e-03    1.0076885156e+05
    4.7198403627e-03    1.0129783594e+05
    4.7299657017e-03    1.0184910156e+05
    4.7398614697e-03    1.0239455469e+05
    4.7497558407e-03    1.0293940625e+05
    4.7599026002e-03    1.0350516406e+05
    4.7698155977e-03    1.0406514844e+05
    4.7799907625e-03    1.0464228906e+05
    4.7899088822e-03    1.0521228125e+05
    4.7998414375e-03    1.0578958594e+05
    4.8097884282e-03    1.0637180469e+05
    4.8199887387e-03    1.0697640625e+05
    4.8299329355e-03    1.0757127344e+05
    4.8398980871e-03    1.0817227344e+05
    4.8498744145e-03    1.0878360156e+05
    4.8598498106e-03    1.0940534375e+05
    4.8698163591e-03    1.1003478906e+05
    4.8798173666e-03    1.1067116406e+05
    4.8898146488e-03    1.1130908594e+05
    4.8998109996e-03    1.1195282031e+05
    4.9098101445e-03    1.1260971094e+05
    4.9198386259e-03    1.1328430469e+05
    4.9298545346e-03    1.1397188281e+05
    4.9398811534e-03    1.1466978906e+05
    4.9499184825e-03    1.1537593750e+05
    4.9599595368e-03    1.1609153906e+05
    4.9699945375e-03    1.1681762500e+05
    4.9798046239e-03    2.3307318750e+05
    4.9898736179e-03    2.6695584375e+05
    4.9999337643e-03    2.6489609375e+05
    5.0099943765e-03    2.6288084375e+05
    5.0198361278e-03    2.6095157812e+05
    5.0299311988e-03    2.5901812500e+05
    5.0397608429e-03    2.5718843750e+05
    5.0498414785e-03    2.5534206250e+05
    5.0599570386e-03    2.5352870312e+05
    5.0698257983e-03    2.5179470312e+05
    5.0799264573e-03    2.5005595312e+05
    5.0897835754e-03    2.4839223438e+05
    5.0999117084e-03    2.4671782812e+05
    5.1098032854e-03    2.4512012500e+05
    5.1199402660e-03    2.4352167188e+05
    5.1298202015e-03    2.4200231250e+05
    5.1399697550e-03    2.4047662500e+05
    5.1498785615e-03    2.3901882812e+05
    5.1597938873e-03    2.3758317188e+05
    5.1699532196e-03    2.3613629688e+05
    5.1798615605e-03    2.3474982812e+05
    5.1897894591e-03    2.3338717188e+05
    5.1999855787e-03    2.3202231250e+05
    5.2099213935e-03    2.3072429688e+05
    5.2198483609e-03    2.2945645312e+05
    5.2297906950e-03    2.2821167188e+05
    5.2397497930e-03    2.2698426562e+05
    5.2499673329e-03    2.2574779688e+05
    5.2599222399e-03    2.2456542188e+05
    5.2698766813e-03    2.2341085938e+05
    5.2798497491e-03    2.2227670312e+05
    5.2898335271e-03    2.2116823438e+05
    5.2998112515e-03    2.2007635938e+05
    5.3097927012e-03    2.1900970312e+05
    5.3197746165e-03    2.1795518750e+05
    5.3297718987e-03    2.1693026562e+05
    5.3397747688e-03    2.1591870312e+05
    5.3497785702e-03    2.1492992188e+05
    5.3597865626e-03    2.1396025000e+05
    5.3697964177e-03    2.1300642188e+05
    5.3798053414e-03    2.1207431250e+05
    5.3898212500e-03    2.1115837500e+05
    5.3998506628e-03    2.1025889062e+05
    5.4098903202e-03    2.0937845312e+05
    5.4199285805e-03    2.0851364062e+05
    5.4299645126e-03    2.0766543750e+05
    5.4399943911e-03    2.0683668750e+05
    5.4497695528e-03    2.0604412500e+05
    5.4598092102e-03    2.0524517188e+05
    5.4698591121e-03    2.0446182812e+05
    5.4799094796e-03    2.0369551562e+05
    5.4899570532e-03    2.0294367188e+05
    5.4997452535e-03    2.0222454688e+05
    5.5097895674e-03    2.0150195312e+05
    5.5198329501e-03    2.0079406250e+05
    5.5298763327e-03    2.0010029688e+05
    5.5399220437e-03    1.9942001562e+05
    5.5499738082e-03    1.9875150000e+05
    5.5597717874e-03    1.9811320312e+05
    5.5698268116e-03    1.9747307812e+05
    5.5798804387e-03    1.9684479688e+05
    5.5899326690e-03    1.9623043750e+05
    5.5999839678e-03    1.9563185938e+05
    5.6097772904e-03    1.9505443750e+05
    5.6198281236e-03    1.9447617188e+05
    5.6298794225e-03    1.9390657812e+05
    5.6399311870e-03    1.9334687500e+05
    5.6499820203e-03    1.9279657812e+05
    5.6597753428e-03    1.9226792188e+05
    5.6698261760e-03    1.9173298438e+05
    5.6798760779e-03    1.9120395312e+05
    5.6899259798e-03    1.9067982812e+05
    5.6999758817e-03    1.9015957812e+05
    5.7097673416e-03    1.8965568750e+05
    5.7198167779e-03    1.8914014062e+05
    5.7298652828e-03    1.8862542188e+05
    5.7399137877e-03    1.8811060938e+05
    5.7499618270e-03    1.8759445312e+05
    5.7597518899e-03    1.8708904688e+05
    5.7697989978e-03    1.8656673438e+05
    5.7798461057e-03    1.8604129688e+05
    5.7898927480e-03    1.8551173438e+05
    5.7999398559e-03    1.8497939062e+05
    5.8099874295e-03    1.8444417188e+05
    5.8197788894e-03    1.8392057812e+05
    5.8298292570e-03    1.8338129688e+05
    5.8398786932e-03    1.8284150000e+05
    5.8499267325e-03    1.8230248438e+05
    5.8599733748e-03    1.8176239062e+05
    5.8697615750e-03    1.8123554688e+05
    5.8798068203e-03    1.8069537500e+05
    5.8898515999e-03    1.8015445312e+05
    5.8998987079e-03    1.7961568750e+05
    5.9099514037e-03    1.7907982812e+05
    5.9197465889e-03    1.7856045312e+05
    5.9297983535e-03    1.7803000000e+05
    5.9398491867e-03    1.7750200000e+05
    5.9498995543e-03    1.7697604688e+05
    5.9599489905e-03    1.7645201562e+05
    5.9699979611e-03    1.7593012500e+05
    5.9797894210e-03    1.7542442188e+05
    5.9898435138e-03    1.7490925000e+05
    5.9998985380e-03    1.7439837500e+05
    6.0099516995e-03    1.7388867188e+05
    6.0197464190e-03    1.7339642188e+05
    6.0297981836e-03    1.7289418750e+05
    6.0398499481e-03    1.7239382812e+05
    6.0499073006e-03    1.7189789062e+05
    6.0599655844e-03    1.7140495312e+05
    6.0697644949e-03    1.7092693750e+05
    6.0798209161e-03    1.7044004688e+05
    6.0898759402e-03    1.6995625000e+05
    6.0999337584e-03    1.6947490625e+05
    6.1099953018e-03    1.6899773438e+05
    6.1197974719e-03    1.6853485938e+05
    6.1298566870e-03    1.6806381250e+05
    6.1399154365e-03    1.6759557812e+05
    6.1499751173e-03    1.6712965625e+05
    6.1597814783e-03    1.6668032812e+05
    6.1698444188e-03    1.6622175000e+05
    6.1799064279e-03    1.6576351562e+05
    6.1899675056e-03    1.6531009375e+05
    6.1997743323e-03    1.6486934375e+05
    6.2098396011e-03    1.6442187500e+05
    6.2199044041e-03    1.6397920312e+05
    6.2299682759e-03    1.6354003125e+05
    6.2397746369e-03    1.6311451562e+05
    6.2498422340e-03    1.6267843750e+05
    6.2599088997e-03    1.6224332812e+05
    6.2699746341e-03    1.6180950000e+05
    6.2797823921e-03    1.6139014062e+05
    6.2898509204e-03    1.6096370312e+05
    6.2999189831e-03    1.6054200000e+05
    6.3099865802e-03    1.6012448438e+05
    6.3197957352e-03    1.5972062500e+05
    6.3298647292e-03    1.5930826562e+05
    6.3399337232e-03    1.5889701562e+05
    6.3497442752e-03    1.5849812500e+05
    6.3598123379e-03    1.5809007812e+05
    6.3698817976e-03    1.5768521875e+05
    6.3799503259e-03    1.5728371875e+05
    6.3897604123e-03    1.5689567188e+05
    6.3998289406e-03    1.5649982812e+05
    6.4098974690e-03    1.5610550000e+05
    6.4199659973e-03    1.5571260938e+05
    6.4297756180e-03    1.5533114062e+05
    6.4398436807e-03    1.5494256250e+05
    6.4499117434e-03    1.5455767188e+05
    6.4599788748e-03    1.5417426562e+05
    6.4697880298e-03    1.5380178125e+05
    6.4798551612e-03    1.5342384375e+05
    6.4899218269e-03    1.5304742188e+05
    6.4999884926e-03    1.5267142188e+05
    6.5097971819e-03    1.5230798438e+05
    6.5198647790e-03    1.5193712500e+05
    6.5299319103e-03    1.5156729688e+05
    6.5399985760e-03    1.5120053125e+05
    6.5498063341e-03    1.5084501562e+05
    6.5598716028e-03    1.5048298438e+05
    6.5699368715e-03    1.5012210938e+05
    6.5797441639e-03    1.4977203125e+05
    6.5898112953e-03    1.4941325000e+05
    6.5998793580e-03    1.4905601562e+05
    6.6099474207e-03    1.4870034375e+05
    6.6197570413e-03    1.4835640625e+05
    6.6298241727e-03    1.4800575000e+05
    6.6398908384e-03    1.4765693750e+05
    6.6499575041e-03    1.4730984375e+05
    6.6597657278e-03    1.4697237500e+05
    6.6698323935e-03    1.4662698438e+05
    6.6798985936e-03    1.4628223438e+05
    6.6899643280e-03    1.4593890625e+05
    6.6997720860e-03    1.4560646875e+05
    6.7098373547e-03    1.4526642188e+05
    6.7199030891e-03    1.4492806250e+05
    6.7299678922e-03    1.4459078125e+05
    6.7397742532e-03    1.4426262500e+05
    6.7498381250e-03    1.4392681250e+05
    6.7599019967e-03    1.4359153125e+05
    6.7699658684e-03    1.4325831250e+05
    6.7797731608e-03    1.4293465625e+05
    6.7898407578e-03    1.4260309375e+05
    6.7999097519e-03    1.4227189062e+05
    6.8099796772e-03    1.4194306250e+05
    6.8197906949e-03    1.4162357812e+05
    6.8298596889e-03    1.4129465625e+05
    6.8399277516e-03    1.4096245312e+05
    6.8499953486e-03    1.4063212500e+05
    6.8598049693e-03    1.4031750000e+05
    6.8698730320e-03    1.4000271875e+05
    6.8799424917e-03    1.3968746875e+05
    6.8897539750e-03    1.3936745312e+05
    6.8998225033e-03    1.3902714062e+05
    6.9098910317e-03    1.3869051562e+05
    6.9199590944e-03    1.3837385938e+05
    6.9297687151e-03    1.3808637500e+05
    6.9398363121e-03    1.3779642188e+05
    6.9499043748e-03    1.3748484375e+05
    6.9599724375e-03    1.3714087500e+05
    6.9697829895e-03    1.3679546875e+05
    6.9798510522e-03    1.3645451562e+05
    6.9899200462e-03    1.3613576562e+05
    6.9999918342e-03    1.3583789062e+05
    7.0098079741e-03    1.3556010938e+05
    7.0198839530e-03    1.3527603125e+05
    7.0299641229e-03    1.3497795312e+05
    7.0397933014e-03    1.3467010938e+05
    7.0498855785e-03    1.3433815625e+05
    7.0599848405e-03    1.3400221875e+05
    7.0698317140e-03    1.3367731250e+05
    7.0799496025e-03    1.3335050000e+05
    7.0898123085e-03    1.3304284375e+05
    7.0999413729e-03    1.3273576562e+05
    7.1098231710e-03    1.3243957812e+05
    7.1199727245e-03    1.3213218750e+05
    7.1298689581e-03    1.3182803125e+05
    7.1397740394e-03    1.3152262500e+05
    7.1499454789e-03    1.3120804688e+05
    7.1598687209e-03    1.3090103906e+05
    7.1697975509e-03    1.3059196094e+05
    7.1799946018e-03    1.3027414844e+05
    7.1899406612e-03    1.2996616406e+05
    7.1998927742e-03    1.2966302344e+05
    7.2098537348e-03    1.2936496094e+05
    7.2198240086e-03    1.2906814844e+05
    7.2297975421e-03    1.2876839844e+05
    7.2397873737e-03    1.2846178906e+05
    7.2497776709e-03    1.2815009375e+05
    7.2597805411e-03    1.2783794531e+05
    7.2697885334e-03    1.2753074219e+05
    7.2797997855e-03    1.2723000781e+05
    7.2898208164e-03    1.2693231250e+05
    7.2998502292e-03    1.2663158594e+05
    7.3098829016e-03    1.2632385156e+05
    7.3199314065e-03    1.2600749219e+05
    7.3299729265e-03    1.2568642969e+05
    7.3397685774e-03    1.2537575781e+05
    7.3498343118e-03    1.2506375000e+05
    7.3599037714e-03    1.2475985156e+05
    7.3699858040e-03    1.2446322656e+05
    7.3797986843e-03    1.2417686719e+05
    7.3898890987e-03    1.2387352344e+05
    7.3999916203e-03    1.2355508594e+05
    7.4098273180e-03    1.2323439844e+05
    7.4199419469e-03    1.2290740625e+05
    7.4297888204e-03    1.2259878125e+05
    7.4399025179e-03    1.2229271875e+05
    7.4497708119e-03    1.2200396875e+05
    7.4598998763e-03    1.2171109375e+05
    7.4697793461e-03    1.2142016406e+05
    7.4799270369e-03    1.2110516406e+05
    7.4898074381e-03    1.2078243750e+05
    7.4999700300e-03    1.2044614844e+05
    7.5098630041e-03    1.2013396094e+05
    7.5197657570e-03    1.1984207031e+05
    7.5299455784e-03    1.1955094531e+05
    7.5398534536e-03    1.1925725000e+05
    7.5497766957e-03    1.1894346875e+05
    7.5599672273e-03    1.1861083594e+05
    7.5698914006e-03    1.1829432031e+05
    7.5798300095e-03    1.1799094531e+05
    7.5897686183e-03    1.1769471094e+05
    7.5999880210e-03    1.1738399219e+05
    7.6099424623e-03    1.1707183594e+05
    7.6198959723e-03    1.1675831250e+05
    7.6298583299e-03    1.1644941406e+05
    7.6398206875e-03    1.1614233594e+05
    7.6497886330e-03    1.1582964844e+05
    7.6597672887e-03    1.1551344531e+05
    7.6697492041e-03    1.1520538281e+05
    7.6797399670e-03    1.1490558594e+05
    7.6897321269e-03    1.1460085156e+05
    7.6999953017e-03    1.1427231250e+05
    7.7099944465e-03    1.1394794531e+05
    7.7199959196e-03    1.1363582031e+05
    7.7297375537e-03    1.1334247656e+05
    7.7397562563e-03    1.1303747656e+05
    7.7497782186e-03    1.1272146094e+05
    7.7598034404e-03    1.1240247656e+05
    7.7698309906e-03    1.1208533594e+05
    7.7798613347e-03    1.1176542969e+05
    7.7899000607e-03    1.1144432031e+05
    7.7999439090e-03    1.1113418750e+05
    7.8099956736e-03    1.1083778906e+05
    7.8197792172e-03    1.1054771094e+05
    7.8298328444e-03    1.1023625781e+05
    7.8398911282e-03    1.0991521094e+05
    7.8499559313e-03    1.0958985156e+05
    7.8597515821e-03    1.0926802344e+05
    7.8698294237e-03    1.0893544531e+05
    7.8799128532e-03    1.0861121875e+05
    7.8899981454e-03    1.0829734375e+05
    7.8998133540e-03    1.0799580469e+05
    7.9099051654e-03    1.0768696094e+05
    7.9199997708e-03    1.0738000781e+05
    7.9298270866e-03    1.0707955469e+05
    7.9399291426e-03    1.0676507031e+05
    7.9497639090e-03    1.0645477344e+05
    7.9598762095e-03    1.0613493750e+05
    7.9699940979e-03    1.0581439844e+05
    7.9798428342e-03    1.0550330469e+05
    7.9899700359e-03    1.0518710156e+05
    7.9998280853e-03    1.0488014844e+05
    8.0099646002e-03    1.0456150781e+05
    8.0198254436e-03    1.0424763281e+05
    8.0299666151e-03    1.0392337500e+05
    8.0398321152e-03    1.0360978906e+05
    8.0499770120e-03    1.0329185156e+05
    8.0598555505e-03    1.0298734375e+05
    8.0697424710e-03    1.0268355469e+05
    8.0799078569e-03    1.0236775781e+05
    8.0897994339e-03    1.0205625000e+05
    8.0999666825e-03    1.0173312500e+05
    8.1098638475e-03    1.0141881250e+05
    8.1197619438e-03    1.0110655469e+05
    8.1299394369e-03    1.0078753906e+05
    8.1398533657e-03    1.0047758594e+05
    8.1497700885e-03    1.0016671875e+05
    8.1599615514e-03    9.9845726562e+04
    8.1698819995e-03    9.9531351562e+04
    8.1798071042e-03    9.9215773438e+04
    8.1897359341e-03    9.8899000000e+04
    8.1999404356e-03    9.8571664062e+04
    8.2098795101e-03    9.8251585938e+04
    8.2198232412e-03    9.7930617188e+04
    8.2297660410e-03    9.7610101562e+04
    8.2399910316e-03    9.7281789062e+04
    8.2499422133e-03    9.6964968750e+04
    8.2598989829e-03    9.6651375000e+04
    8.2698566839e-03    9.6338273438e+04
    8.2798162475e-03    9.6025054688e+04
    8.2897860557e-03    9.5705773438e+04
    8.2997567952e-03    9.5380726562e+04
    8.3097284660e-03    9.5048835938e+04
    8.3199879155e-03    9.4705281250e+04
    8.3299726248e-03    9.4372226562e+04
    8.3399591967e-03    9.4044539062e+04
    8.3499467000e-03    9.3722257812e+04
    8.3599397913e-03    9.3404117188e+04
    8.3699366078e-03    9.3087445312e+04
    8.3799324930e-03    9.2771312500e+04
    8.3899339661e-03    9.2455992188e+04
    8.3999456838e-03    9.2142210938e+04
    8.4099574015e-03    9.1830007812e+04
    8.4199728444e-03    9.1518070312e+04
    8.4299929440e-03    9.1204992188e+04
    8.4397392347e-03    9.0899367188e+04
    8.4497639909e-03    9.0585625000e+04
    8.4597850218e-03    9.0274531250e+04
    8.4698218852e-03    8.9966601562e+04
    8.4798634052e-03    8.9660687500e+04
    8.4899049252e-03    8.9350617188e+04
    8.4999529645e-03    8.9024375000e+04
    8.5097253323e-03    8.8674429688e+04
    8.5197780281e-03    8.8259750000e+04
    8.5298316553e-03    8.7776664062e+04
    8.5398862138e-03    8.7226484375e+04
    8.5499566048e-03    8.6623125000e+04
    8.5597448051e-03    8.6001140625e+04
    8.5698161274e-03    8.5340703125e+04
    8.5798976943e-03    8.4666375000e+04
    8.5899792612e-03    8.3987093750e+04
    8.5997814313e-03    8.3324851562e+04
    8.6098685861e-03    8.2643250000e+04
    8.6199594662e-03    8.1964460938e+04
    8.6297793314e-03    8.1307531250e+04
    8.6398730054e-03    8.0635468750e+04
    8.6499741301e-03    7.9968093750e+04
    8.6598070338e-03    7.9324007812e+04
    8.6699156091e-03    7.8666718750e+04
    8.6797494441e-03    7.8032218750e+04
    8.6898729205e-03    7.7384796875e+04
    8.6997188628e-03    7.6761007812e+04
    8.7098479271e-03    7.6125203125e+04
    8.7199741974e-03    7.5495523438e+04
    8.7298257276e-03    7.4888015625e+04
    8.7399687618e-03    7.4267593750e+04
    8.7498249486e-03    7.3670507812e+04
    8.7599745020e-03    7.3060687500e+04
    8.7698511779e-03    7.2472640625e+04
    8.7797278538e-03    7.1890664062e+04
    8.7898895144e-03    7.1296609375e+04
    8.7997708470e-03    7.0724820312e+04
    8.8099418208e-03    7.0142031250e+04
    8.8198324665e-03    6.9579632812e+04
    8.8297184557e-03    6.9023507812e+04
    8.8399033993e-03    6.8455125000e+04
    8.8498089463e-03    6.7907859375e+04
    8.8599985465e-03    6.7349796875e+04
    8.8699152693e-03    6.6811757812e+04
    8.8798329234e-03    6.6278250000e+04
    8.8897552341e-03    6.5749265625e+04
    8.8999588042e-03    6.5209921875e+04
    8.9098839089e-03    6.4690269531e+04
    8.9198248461e-03    6.4174218750e+04
    8.9297695085e-03    6.3662566406e+04
    8.9397178963e-03    6.3155394531e+04
    8.9499577880e-03    6.2638078125e+04
    8.9599089697e-03    6.2139968750e+04
    8.9698610827e-03    6.1646234375e+04
    8.9798141271e-03    6.1156875000e+04
    8.9897671714e-03    6.0671582031e+04
    8.9997341856e-03    6.0189363281e+04
    9.0099833906e-03    5.9697542969e+04
    9.0199522674e-03    5.9223855469e+04
    9.0299267322e-03    5.8754531250e+04
    9.0398937464e-03    5.8289781250e+04
    9.0498626232e-03    5.7829296875e+04
    9.0598464012e-03    5.7371816406e+04
    9.0698236600e-03    5.6917746094e+04
    9.0798158199e-03    5.6467074219e+04
    9.0897977352e-03    5.6020796875e+04
    9.0997898951e-03    5.5578015625e+04
    9.1097857803e-03    5.5138996094e+04
    9.1197760776e-03    5.4704425781e+04
    9.1297747567e-03    5.4273417969e+04
    9.1397892684e-03    5.3844980469e+04
    9.1497953981e-03    5.3420285156e+04
    9.1598164290e-03    5.2998988281e+04
    9.1698439792e-03    5.2581140625e+04
    9.1798789799e-03    5.2166636719e+04
    9.1899260879e-03    5.1755660156e+04
    9.1999731958e-03    5.1348519531e+04
    9.2097334564e-03    5.0956238281e+04
    9.2197787017e-03    5.0556566406e+04
    9.2298174277e-03    5.0161183594e+04
    9.2398598790e-03    4.9769605469e+04
    9.2499023303e-03    4.9382441406e+04
    9.2599522322e-03    4.8999496094e+04
    9.2697208747e-03    4.8631921875e+04
    9.2797782272e-03    4.8259324219e+04
    9.2898355797e-03    4.7893613281e+04
    9.2998910695e-03    4.7537269531e+04
    9.3099456280e-03    4.7194613281e+04
    9.3199992552e-03    4.6875496094e+04
    9.3297651038e-03    4.6626167969e+04
    9.3398196623e-03    4.6476347656e+04
    9.3498751521e-03    4.6473910156e+04
    9.3599325046e-03    4.6570699219e+04
    9.3699879944e-03    4.6671421875e+04
    9.3797557056e-03    4.6691707031e+04
    9.3898074701e-03    4.6633988281e+04
    9.3998610973e-03    4.6566574219e+04
    9.4099175185e-03    4.6545472656e+04
    9.4199748710e-03    4.6560503906e+04
    9.4297481701e-03    4.6574417969e+04
    9.4398083165e-03    4.6582390625e+04
    9.4498647377e-03    4.6603238281e+04
    9.4599230215e-03    4.6642589844e+04
    9.4699813053e-03    4.6692160156e+04
    9.4797546044e-03    4.6749011719e+04
    9.4898203388e-03    4.6821746094e+04
    9.4998870045e-03    4.6909925781e+04
    9.5099564642e-03    4.7010441406e+04
    9.5197353512e-03    4.7118332031e+04
    9.5298001543e-03    4.7240937500e+04
    9.5398686826e-03    4.7376761719e+04
    9.5499455929e-03    4.7525277344e+04
    9.5597403124e-03    4.7679937500e+04
    9.5698256046e-03    4.7848515625e+04
    9.5799118280e-03    4.8025464844e+04
    9.5897130668e-03    4.8204167969e+04
    9.5998030156e-03    4.8394207031e+04
    9.6098911017e-03    4.8588769531e+04
    9.6199763939e-03    4.8784968750e+04
    9.6297729760e-03    4.8975675781e+04
    9.6398564056e-03    4.9172824219e+04
    9.6499379724e-03    4.9369902344e+04
    9.6597326919e-03    4.9558699219e+04
    9.6698161215e-03    4.9749339844e+04
    9.6799004823e-03    4.9935871094e+04
    9.6899867058e-03    5.0117503906e+04
    9.6997851506e-03    5.0289550781e+04
    9.7098704427e-03    5.0462363281e+04
    9.7199557349e-03    5.0630394531e+04
    9.7297523171e-03    5.0789062500e+04
    9.7398348153e-03    5.0947457031e+04
    9.7499173135e-03    5.1100847656e+04
    9.7599988803e-03    5.1249667969e+04
    9.7697917372e-03    5.1389917969e+04
    9.7798723727e-03    5.1530003906e+04
    9.7899520770e-03    5.1665886719e+04
    9.7997440025e-03    5.1794339844e+04
    9.8098227754e-03    5.1923425781e+04
    9.8199006170e-03    5.2049812500e+04
    9.8299784586e-03    5.2173699219e+04
    9.8397666588e-03    5.2291800781e+04
    9.8498435691e-03    5.2411144531e+04
    9.8599186167e-03    5.2527937500e+04
    9.8699945956e-03    5.2641792969e+04
    9.8797809333e-03    5.2749363281e+04
    9.8898550496e-03    5.2857285156e+04
    9.8999282345e-03    5.2963015625e+04
    9.9097145721e-03    5.3063785156e+04
    9.9197877571e-03    5.3164988281e+04
    9.9298609421e-03    5.3263144531e+04
    9.9399341270e-03    5.3358332031e+04
    9.9497186020e-03    5.3448355469e+04
    9.9597917870e-03    5.3538707031e+04
    9.9698659033e-03    5.3626730469e+04
    9.9799400195e-03    5.3712453125e+04
    9.9897300825e-03    5.3793496094e+04
    9.9998088554e-03    5.3874332031e+04
    1.0009888560e-02    5.3952339844e+04
    1.0019972920e-02    5.4027628906e+04
    1.0029772297e-02    5.4098605469e+04
    1.0039859451e-02    5.4169667969e+04
    1.0049952194e-02    5.4238644531e+04
    1.0059761815e-02    5.4303738281e+04
    1.0069874115e-02    5.4369050781e+04
    1.0079999454e-02    5.4432722656e+04
    1.0089835152e-02    5.4492792969e+04
    1.0099965148e-02    5.4552406250e+04
    1.0109812021e-02    5.4607980469e+04
    1.0119947605e-02    5.4662824219e+04
    1.0129817761e-02    5.4714457031e+04
    1.0139998049e-02    5.4766738281e+04
    1.0149900801e-02    5.4816738281e+04
    1.0159848258e-02    5.4865000000e+04
    1.0169834830e-02    5.4910480469e+04
    1.0179853998e-02    5.4954156250e+04
    1.0189899243e-02    5.4998394531e+04
    1.0199963115e-02    5.5043832031e+04
    1.0209743865e-02    5.5086855469e+04
    1.0219831951e-02    5.5127562500e+04
    1.0229921900e-02    5.5165019531e+04
    1.0239713825e-02    5.5200796875e+04
    1.0249804705e-02    5.5238457031e+04
    1.0259912349e-02    5.5275800781e+04
    1.0269748978e-02    5.5310191406e+04
    1.0279910639e-02    5.5343878906e+04
    1.0289797559e-02    5.5376093750e+04
    1.0299704038e-02    5.5407988281e+04
    1.0309928097e-02    5.5439718750e+04
    1.0319863446e-02    5.5469324219e+04
    1.0329810902e-02    5.5498218750e+04
    1.0339779779e-02    5.5526550781e+04
    1.0349798016e-02    5.5554390625e+04
    1.0359918699e-02    5.5582234375e+04
    1.0369879194e-02    5.5610000000e+04
    1.0379712097e-02    5.5637792969e+04
    1.0389748961e-02    5.5665871094e+04
    1.0399669409e-02    5.5692386719e+04
    1.0409796610e-02    5.5717425781e+04
    1.0419782251e-02    5.5739894531e+04
    1.0429958813e-02    5.5761035156e+04
    1.0439962149e-02    5.5781113281e+04
    1.0449772701e-02    5.5801156250e+04
    1.0459740646e-02    5.5822437500e+04
    1.0469865054e-02    5.5845410156e+04
    1.0479761288e-02    5.5869359375e+04
    1.0489799082e-02    5.5894375000e+04
    1.0499978438e-02    5.5919203125e+04
    1.0509898886e-02    5.5941953125e+04
    1.0519947857e-02    5.5963480469e+04
    1.0529716499e-02    5.5983792969e+04
    1.0539601557e-02    5.6004343750e+04
    1.0549604893e-02    5.6025222656e+04
    1.0559729300e-02    5.6046386719e+04
    1.0569969192e-02    5.6067847656e+04
    1.0579886846e-02    5.6088390625e+04
    1.0589900427e-02    5.6108480469e+04
    1.0599578731e-02    5.6127394531e+04
    1.0609796271e-02    5.6147593750e+04
    1.0619655252e-02    5.6168363281e+04
    1.0629592463e-02    5.6191113281e+04
    1.0639597662e-02    5.6215175781e+04
    1.0649651289e-02    5.6239214844e+04
    1.0659742169e-02    5.6262042969e+04
    1.0669872165e-02    5.6285175781e+04
    1.0679577477e-02    5.6310781250e+04
    1.0689788498e-02    5.6341972656e+04
    1.0699590668e-02    5.6372761719e+04
    1.0709909722e-02    5.6401957031e+04
    1.0719793849e-02    5.6426035156e+04
    1.0729722679e-02    5.6449121094e+04
    1.0739704594e-02    5.6473464844e+04
    1.0749707930e-02    5.6499292969e+04
    1.0759761557e-02    5.6525828125e+04
    1.0769887827e-02    5.6553496094e+04
    1.0779554956e-02    5.6582140625e+04
    1.0789736174e-02    5.6615140625e+04
    1.0799979791e-02    5.6650718750e+04
    1.0809768923e-02    5.6685355469e+04
    1.0819604620e-02    5.6720363281e+04
    1.0829956271e-02    5.6756480469e+04
    1.0839883238e-02    5.6790175781e+04
    1.0849805549e-02    5.6822718750e+04
    1.0859781876e-02    5.6855722656e+04
    1.0869816877e-02    5.6890515625e+04
    1.0879879817e-02    5.6927265625e+04
    1.0889936239e-02    5.6966078125e+04
    1.0899546556e-02    5.7005156250e+04
    1.0909702629e-02    5.7047550781e+04
    1.0919914581e-02    5.7091277344e+04
    1.0929670185e-02    5.7133558594e+04
    1.0939967819e-02    5.7177011719e+04
    1.0949759744e-02    5.7218078125e+04
    1.0959638283e-02    5.7260140625e+04
    1.0969983414e-02    5.7304996094e+04
    1.0979868472e-02    5.7348390625e+04
    1.0989836417e-02    5.7393785156e+04
    1.0999783874e-02    5.7440355469e+04
    1.1009768583e-02    5.7488921875e+04
    1.1019766331e-02    5.7539015625e+04
    1.1029722169e-02    5.7589230469e+04
    1.1039773002e-02    5.7639957031e+04
    1.1049847119e-02    5.7690625000e+04
    1.1059922166e-02    5.7741746094e+04
    1.1069528759e-02    5.7791769531e+04
    1.1079695076e-02    5.7845949219e+04
    1.1089893058e-02    5.7899957031e+04
    1.1099558324e-02    5.7950910156e+04
    1.1109794490e-02    5.8006527344e+04
    1.1119499803e-02    5.8062660156e+04
    1.1129789986e-02    5.8125855469e+04
    1.1139514856e-02    5.8187785156e+04
    1.1149832048e-02    5.8251550781e+04
    1.1159552261e-02    5.8309175781e+04
    1.1169828475e-02    5.8367128906e+04
    1.1179477908e-02    5.8421296875e+04
    1.1189492419e-02    5.8478566406e+04
    1.1199755594e-02    5.8540136719e+04
    1.1209649034e-02    5.8603375000e+04
    1.1219651438e-02    5.8671324219e+04
    1.1229723692e-02    5.8742277344e+04
    1.1239825748e-02    5.8813417969e+04
    1.1249917559e-02    5.8882718750e+04
    1.1259956285e-02    5.8949136719e+04
    1.1269901879e-02    5.9012808594e+04
    1.1279709637e-02    5.9074484375e+04
    1.1289669201e-02    5.9137082031e+04
    1.1299982667e-02    5.9203058594e+04
    1.1309885420e-02    5.9268800781e+04
    1.1319849640e-02    5.9338062500e+04
    1.1329893023e-02    5.9410808594e+04
    1.1339923367e-02    5.9485269531e+04
    1.1349879205e-02    5.9560449219e+04
    1.1359921657e-02    5.9637761719e+04
    1.1369999498e-02    5.9715128906e+04
    1.1379928328e-02    5.9791589844e+04
    1.1389998719e-02    5.9868511719e+04
    1.1399981566e-02    5.9943378906e+04
    1.1409968138e-02    6.0017312500e+04
    1.1419894174e-02    6.0090671875e+04
    1.1429894716e-02    6.0164058594e+04
    1.1439875700e-02    6.0236902344e+04
    1.1449908838e-02    6.0310160156e+04
    1.1459993199e-02    6.0384015625e+04
    1.1469942518e-02    6.0457457031e+04
    1.1479895562e-02    6.0531800781e+04
    1.1489868164e-02    6.0607515625e+04
    1.1499814689e-02    6.0685511719e+04
    1.1509947479e-02    6.0769203125e+04
    1.1519977823e-02    6.0858550781e+04
    1.1529911309e-02    6.0954468750e+04
    1.1539925821e-02    6.1057597656e+04
    1.1549798772e-02    6.1160785156e+04
    1.1559962295e-02    6.1261886719e+04
    1.1569958180e-02    6.1350605469e+04
    1.1579774320e-02    6.1427812500e+04
    1.1589856818e-02    6.1503015625e+04
    1.1599763297e-02    6.1580519531e+04
    1.1609931476e-02    6.1668574219e+04
    1.1619905941e-02    6.1761777344e+04
    1.1629910208e-02    6.1856890625e+04
    1.1639941484e-02    6.1950050781e+04
    1.1649767868e-02    6.2039300781e+04
    1.1659849435e-02    6.2131332031e+04
    1.1669970118e-02    6.2225656250e+04
    1.1679857038e-02    6.2318281250e+04
    1.1689787731e-02    6.2410480469e+04
    1.1699957773e-02    6.2505105469e+04
    1.1709918268e-02    6.2599183594e+04
    1.1719904840e-02    6.2695542969e+04
    1.1729883961e-02    6.2793035156e+04
    1.1739918962e-02    6.2891113281e+04
    1.1749931611e-02    6.2988417969e+04
    1.1759986170e-02    6.3085746094e+04
    1.1769803241e-02    6.3181265625e+04
    1.1779886670e-02    6.3280878906e+04
    1.1789991520e-02    6.3382480469e+04
    1.1799854226e-02    6.3482625000e+04
    1.1809757911e-02    6.3583125000e+04
    1.1819904670e-02    6.3685718750e+04
    1.1829826050e-02    6.3786386719e+04
    1.1839773506e-02    6.3888707031e+04
    1.1849978939e-02    6.3995441406e+04
    1.1859945953e-02    6.4100812500e+04
    1.1869929731e-02    6.4206812500e+04
    1.1879941449e-02    6.4313175781e+04
    1.1889952235e-02    6.4419949219e+04
    1.1899978854e-02    6.4528343750e+04
    1.1909779161e-02    6.4636089844e+04
    1.1919834651e-02    6.4747675781e+04
    1.1929893866e-02    6.4859433594e+04
    1.1939981952e-02    6.4971625000e+04
    1.1949833483e-02    6.5082222656e+04
    1.1959933676e-02    6.5197074219e+04
    1.1969791725e-02    6.5310218750e+04
    1.1979933828e-02    6.5426824219e+04
    1.1989821680e-02    6.5540593750e+04
    1.1999961920e-02    6.5658000000e+04
    1.2009870261e-02    6.5773867188e+04
    1.2019794434e-02    6.5890695312e+04
    1.2029964477e-02    6.6010718750e+04
    1.2039900757e-02    6.6128343750e+04
    1.2049862184e-02    6.6247484375e+04
    1.2059818953e-02    6.6368070312e+04
    1.2069776654e-02    6.6489867188e+04
    1.2079758570e-02    6.6612953125e+04
    1.2089750730e-02    6.6737539062e+04
    1.2099985965e-02    6.6867132812e+04
    1.2109979987e-02    6.6995335938e+04
    1.2119745836e-02    6.7121632812e+04
    1.2129765004e-02    6.7251953125e+04
    1.2139781378e-02    6.7383570312e+04
    1.2149817310e-02    6.7516632812e+04
    1.2159867212e-02    6.7650695312e+04
    1.2169909663e-02    6.7784734375e+04
    1.2179969810e-02    6.7919164062e+04
    1.2189789675e-02    6.8050859375e+04
    1.2199865654e-02    6.8186359375e+04
    1.2209936045e-02    6.8322046875e+04
    1.2219775468e-02    6.8454640625e+04
    1.2229884043e-02    6.8591312500e+04
    1.2239987962e-02    6.8728570312e+04
    1.2249830179e-02    6.8862765625e+04
    1.2259955518e-02    6.9001421875e+04
    1.2269830331e-02    6.9137406250e+04
    1.2279963121e-02    6.9278085938e+04
    1.2289844453e-02    6.9416773438e+04
    1.2299994007e-02    6.9560304688e+04
    1.2309887446e-02    6.9700921875e+04
    1.2319791131e-02    6.9841875000e+04
    1.2329966761e-02    6.9986578125e+04
    1.2339880690e-02    7.0128210938e+04
    1.2349797413e-02    7.0270601562e+04
    1.2359986082e-02    7.0417375000e+04
    1.2369925156e-02    7.0561156250e+04
    1.2379866093e-02    7.0705382812e+04
    1.2389801443e-02    7.0849968750e+04
    1.2399748899e-02    7.0995734375e+04
    1.2409969233e-02    7.1146703125e+04
    1.2419928797e-02    7.1294960938e+04
    1.2429893017e-02    7.1444898438e+04
    1.2439858168e-02    7.1596445312e+04
    1.2449832633e-02    7.1749734375e+04
    1.2459814548e-02    7.1905351562e+04
    1.2469802052e-02    7.2063960938e+04
    1.2479791418e-02    7.2225632812e+04
    1.2489781715e-02    7.2390382812e+04
    1.2499774806e-02    7.2558617188e+04
    1.2509780005e-02    7.2730546875e+04
    1.2519785203e-02    7.2905968750e+04
    1.2529788539e-02    7.3085054688e+04
    1.2539793737e-02    7.3267789062e+04
    1.2549808249e-02    7.3454078125e+04
    1.2559829280e-02    7.3643953125e+04
    1.2569855899e-02    7.3837875000e+04
    1.2579884380e-02    7.4035851562e+04
    1.2589915656e-02    7.4237570312e+04
    1.2599946931e-02    7.4442921875e+04
    1.2609976344e-02    7.4652367188e+04
    1.2619742192e-02    7.4860843750e+04
    1.2629771605e-02    7.5079968750e+04
    1.2639800087e-02    7.5303835938e+04
    1.2649829499e-02    7.5531937500e+04
    1.2659859844e-02    7.5764140625e+04
    1.2669892050e-02    7.6000820312e+04
    1.2679925188e-02    7.6242226562e+04
    1.2689959258e-02    7.6488578125e+04
    1.2699995190e-02    7.6740078125e+04
    1.2709766626e-02    7.6990140625e+04
    1.2719803490e-02    7.7252546875e+04
    1.2729840353e-02    7.7520898438e+04
    1.2739876285e-02    7.7795406250e+04
    1.2749913149e-02    7.8076132812e+04
    1.2759949081e-02    7.8363156250e+04
    1.2769985944e-02    7.8656648438e+04
    1.2779758312e-02    7.8949125000e+04
    1.2789795175e-02    7.9257164062e+04
    1.2799832970e-02    7.9573687500e+04
    1.2809871696e-02    7.9899093750e+04
    1.2819910422e-02    8.0233578125e+04
    1.2829950079e-02    8.0577460938e+04
    1.2839989737e-02    8.0931507812e+04
    1.2849766761e-02    8.1287132812e+04
    1.2859808281e-02    8.1665000000e+04
    1.2869849801e-02    8.2057031250e+04
    1.2879892252e-02    8.2464171875e+04
    1.2889935635e-02    8.2887507812e+04
    1.2899979018e-02    8.3339039062e+04
    1.2909758836e-02    9.2133351562e+04
    1.2919803150e-02    1.0882592969e+05
    1.2929848395e-02    1.0902972656e+05
    1.2939893641e-02    1.0865572656e+05
    1.2949938886e-02    1.0825296094e+05
    1.2959984131e-02    1.0790205469e+05
    1.2969764881e-02    1.0756496094e+05
    1.2979810126e-02    1.0722439844e+05
    1.2989856303e-02    1.0689538281e+05
    1.2999901548e-02    1.0657671094e+05
    1.3009948656e-02    1.0626728125e+05
    1.3019997627e-02    1.0596625000e+05
    1.3029785827e-02    1.0568091406e+05
    1.3039844111e-02    1.0539541406e+05
    1.3049907051e-02    1.0511771875e+05
    1.3059969991e-02    1.0484803125e+05
    1.3069766574e-02    1.0459286719e+05
    1.3079825789e-02    1.0433791406e+05
    1.3089885004e-02    1.0408978125e+05
    1.3099943288e-02    1.0384788281e+05
    1.3109737076e-02    1.0361835156e+05
    1.3119796291e-02    1.0338897656e+05
    1.3129859231e-02    1.0316585156e+05
    1.3139925897e-02    1.0294877344e+05
    1.3149991632e-02    1.0273739844e+05
    1.3159791939e-02    1.0253691406e+05
    1.3169856742e-02    1.0233628906e+05
    1.3179922476e-02    1.0214058594e+05
    1.3189988211e-02    1.0194969531e+05
    1.3199789450e-02    1.0176936719e+05
    1.3209855184e-02    1.0158778125e+05
    1.3219919987e-02    1.0141278125e+05
    1.3229985721e-02    1.0124203125e+05
    1.3239786960e-02    1.0107825781e+05
    1.3249853626e-02    1.0091514844e+05
    1.3259920292e-02    1.0075614844e+05
    1.3269986957e-02    1.0060128125e+05
    1.3279788196e-02    1.0045428125e+05
    1.3289854862e-02    1.0030741406e+05
    1.3299921528e-02    1.0016444531e+05
    1.3309987262e-02    1.0002516406e+05
    1.3319789432e-02    9.9893156250e+04
    1.3329857029e-02    9.9760914062e+04
    1.3339924626e-02    9.9631960938e+04
    1.3349992223e-02    9.9506335938e+04
    1.3359794393e-02    9.9387132812e+04
    1.3369861059e-02    9.9268164062e+04
    1.3379928656e-02    9.9152398438e+04
    1.3389996253e-02    9.9039710938e+04
    1.3399799354e-02    9.8932726562e+04
    1.3409866951e-02    9.8825648438e+04
    1.3419934548e-02    9.8721523438e+04
    1.3429736719e-02    9.8622960938e+04
    1.3439804316e-02    9.8524625000e+04
    1.3449871913e-02    9.8429000000e+04
    1.3459940441e-02    9.8336398438e+04
    1.3469743542e-02    9.8248617188e+04
    1.3479812071e-02    9.8162289062e+04
    1.3489879668e-02    9.8076789062e+04
    1.3499948196e-02    9.7995210938e+04
    1.3509751298e-02    9.7918226562e+04
    1.3519819826e-02    9.7840492188e+04
    1.3529888354e-02    9.7764335938e+04
    1.3539955951e-02    9.7690132812e+04
    1.3549759984e-02    9.7619851562e+04
    1.3559828512e-02    9.7550179688e+04
    1.3569897041e-02    9.7483687500e+04
    1.3579965569e-02    9.7420726562e+04
    1.3589769602e-02    9.7362492188e+04
    1.3599838130e-02    9.7304976562e+04
    1.3609906659e-02    9.7248781250e+04
    1.3619976118e-02    9.7193601562e+04
    1.3629780151e-02    9.7140414062e+04
    1.3639848679e-02    9.7087601562e+04
    1.3649917208e-02    9.7037523438e+04
    1.3659986667e-02    9.6990375000e+04
    1.3669790700e-02    9.6947460938e+04
    1.3679860160e-02    9.6904976562e+04
    1.3689929619e-02    9.6864289062e+04
    1.3699999079e-02    9.6824289062e+04
    1.3709803112e-02    9.6787117188e+04
    1.3719873503e-02    9.6750468750e+04
    1.3729942963e-02    9.6716335938e+04
    1.3739747927e-02    9.6685007812e+04
    1.3749817386e-02    9.6654656250e+04
    1.3759886846e-02    9.6626437500e+04
    1.3769957237e-02    9.6599460938e+04
    1.3779762201e-02    9.6574531250e+04
    1.3789832592e-02    9.6551320312e+04
    1.3799902983e-02    9.6529554688e+04
    1.3809973374e-02    9.6509156250e+04
    1.3819778338e-02    9.6491093750e+04
    1.3829848729e-02    9.6473968750e+04
    1.3839919120e-02    9.6458554688e+04
    1.3849989511e-02    9.6444601562e+04
    1.3859795406e-02    9.6432539062e+04
    1.3869866729e-02    9.6421812500e+04
    1.3879938051e-02    9.6412398438e+04
    1.3889744878e-02    9.6404781250e+04
    1.3899817131e-02    9.6398398438e+04
    1.3909888454e-02    9.6393726562e+04
    1.3919959776e-02    9.6390820312e+04
    1.3929766603e-02    9.6388960938e+04
    1.3939838856e-02    9.6388742188e+04
    1.3949911110e-02    9.6389820312e+04
    1.3959983364e-02    9.6392507812e+04
    1.3969790190e-02    9.6396250000e+04
    1.3979863375e-02    9.6401039062e+04
    1.3989935629e-02    9.6406906250e+04
    1.3999744318e-02    9.6414023438e+04
    1.4009817503e-02    9.6422750000e+04
    1.4019890688e-02    9.6432617188e+04
    1.4029964805e-02    9.6444367188e+04
    1.4039773494e-02    9.6457429688e+04
    1.4049846679e-02    9.6471460938e+04
    1.4059920795e-02    9.6487414062e+04
    1.4069994912e-02    9.6504585938e+04
    1.4079804532e-02    9.6522304688e+04
    1.4089878649e-02    9.6541414062e+04
    1.4099953696e-02    9.6561437500e+04
    1.4109763317e-02    9.6581695312e+04
    1.4119839296e-02    9.6603218750e+04
    1.4129914343e-02    9.6625742188e+04
    1.4139990322e-02    9.6650007812e+04
    1.4149799943e-02    9.6675742188e+04
    1.4159875922e-02    9.6704242188e+04
    1.4169951901e-02    9.6734187500e+04
    1.4179762453e-02    9.6763695312e+04
    1.4189838432e-02    9.6793281250e+04
    1.4199914411e-02    9.6821718750e+04
    1.4209990390e-02    9.6849601562e+04
    1.4219801873e-02    9.6877304688e+04
    1.4229878783e-02    9.6907476562e+04
    1.4239955693e-02    9.6940320312e+04
    1.4249768108e-02    9.6974898438e+04
    1.4259845950e-02    9.7012664062e+04
    1.4269922860e-02    9.7051781250e+04
    1.4279735275e-02    9.7090148438e+04
    1.4289813116e-02    9.7129257812e+04
    1.4299890958e-02    9.7167414062e+04
    1.4309968799e-02    9.7203976562e+04
    1.4319782145e-02    9.7238773438e+04
    1.4329860918e-02    9.7273726562e+04
    1.4339939691e-02    9.7308632812e+04
    1.4349753037e-02    9.7343406250e+04
    1.4359832741e-02    9.7380039062e+04
    1.4369911514e-02    9.7417312500e+04
    1.4379991218e-02    9.7454929688e+04
    1.4389805496e-02    9.7491562500e+04
    1.4399885200e-02    9.7528742188e+04
    1.4409964904e-02    9.7565273438e+04
    1.4419779181e-02    9.7600273438e+04
    1.4429859817e-02    9.7635750000e+04
    1.4439940453e-02    9.7670843750e+04
    1.4449755661e-02    9.7704601562e+04
    1.4459836297e-02    9.7738710938e+04
    1.4469917864e-02    9.7772132812e+04
    1.4479998499e-02    9.7804992188e+04
    1.4489814639e-02    9.7836601562e+04
    1.4499896206e-02    9.7868710938e+04
    1.4509978704e-02    9.7900382812e+04
    1.4519794844e-02    9.7930726562e+04
    1.4529876411e-02    9.7961500000e+04
    1.4539958909e-02    9.7992195312e+04
    1.4549775980e-02    9.8022539062e+04
    1.4559858479e-02    9.8054648438e+04
    1.4569941908e-02    9.8087851562e+04
    1.4579758979e-02    9.8121257812e+04
    1.4589842409e-02    9.8156335938e+04
    1.4599924907e-02    9.8191351562e+04
    1.4609742910e-02    9.8223773438e+04
    1.4619827271e-02    9.8253054688e+04
    1.4629910700e-02    9.8275960938e+04
    1.4639995061e-02    9.8290843750e+04
    1.4649813063e-02    9.8297726562e+04
    1.4659897424e-02    9.8299617188e+04
    1.4669981785e-02    9.8301906250e+04
    1.4679800719e-02    9.8309820312e+04
    1.4689886011e-02    9.8325312500e+04
    1.4699970372e-02    9.8347164062e+04
    1.4709790237e-02    9.8371664062e+04
    1.4719875529e-02    9.8396468750e+04
    1.4729960822e-02    9.8418101562e+04
    1.4739780687e-02    9.8435507812e+04
    1.4749865979e-02    9.8451023438e+04
    1.4759952202e-02    9.8466226562e+04
    1.4769772068e-02    9.8482031250e+04
    1.4779858291e-02    9.8499210938e+04
    1.4789944515e-02    9.8516617188e+04
    1.4799765311e-02    9.8533460938e+04
    1.4809851535e-02    9.8550804688e+04
    1.4819938689e-02    9.8568414062e+04
    1.4829760417e-02    9.8585710938e+04
    1.4839846641e-02    9.8603210938e+04
    1.4849933796e-02    9.8620031250e+04
    1.4859755524e-02    9.8635773438e+04
    1.4869843610e-02    9.8651750000e+04
    1.4879930764e-02    9.8668117188e+04
    1.4889752492e-02    9.8684679688e+04
    1.4899840578e-02    9.8702117188e+04
    1.4909928665e-02    9.8719523438e+04
    1.4919751324e-02    9.8736054688e+04
    1.4929839410e-02    9.8752460938e+04
    1.4939927496e-02    9.8768500000e+04
    1.4949751087e-02    9.8784101562e+04
    1.4959839173e-02    9.8800351562e+04
    1.4969928190e-02    9.8816945312e+04
    1.4979751781e-02    9.8833289062e+04
    1.4989840798e-02    9.8850039062e+04
    1.4999929816e-02    9.8866554688e+04
    1.5009753406e-02    9.8882398438e+04
    1.5019843355e-02    9.8898664062e+04
    1.5029932372e-02    9.8915179688e+04
    1.5039756894e-02    9.8931406250e+04
    1.5049846843e-02    9.8947898438e+04
    1.5059935860e-02    9.8963976562e+04
    1.5069760382e-02    9.8979398438e+04
    1.5079851262e-02    9.8995289062e+04
    1.5089941211e-02    9.9011460938e+04
    1.5099766664e-02    9.9027414062e+04
    1.5109857544e-02    9.9043773438e+04
    1.5119947493e-02    9.9059976562e+04
    1.5129772946e-02    9.9075648438e+04
    1.5139863826e-02    9.9091710938e+04
    1.5149954706e-02    9.9107804688e+04
    1.5159780160e-02    9.9123257812e+04
    1.5169871971e-02    9.9138726562e+04
    1.5179962851e-02    9.9153851562e+04
    1.5189789236e-02    9.9168375000e+04
    1.5199881047e-02    9.9183367188e+04
    1.5209972858e-02    9.9198570312e+04
    1.5219799243e-02    9.9213648438e+04
    1.5229891054e-02    9.9229335938e+04
    1.5239982866e-02    9.9245148438e+04
    1.5249809250e-02    9.9260539062e+04
    1.5259901993e-02    9.9276085938e+04
    1.5269993804e-02    9.9291125000e+04
    1.5279821120e-02    9.9305273438e+04
    1.5289913863e-02    9.9319367188e+04
    1.5299741179e-02    9.9332789062e+04
    1.5309833921e-02    9.9346351562e+04
    1.5319926664e-02    9.9359812500e+04
    1.5329753980e-02    9.9372898438e+04
    1.5339846723e-02    9.9386414062e+04
    1.5349940397e-02    9.9400023438e+04
    1.5359767713e-02    9.9413164062e+04
    1.5369861387e-02    9.9426367188e+04
    1.5379955061e-02    9.9439218750e+04
    1.5389783308e-02    9.9451523438e+04
    1.5399876982e-02    9.9464085938e+04
    1.5409970656e-02    9.9476664062e+04
    1.5419798903e-02    9.9488976562e+04
    1.5429893509e-02    9.9501632812e+04
    1.5439987183e-02    9.9514101562e+04
    1.5449815430e-02    9.9525867188e+04
    1.5459910035e-02    9.9537226562e+04
    1.5469739214e-02    9.9547437500e+04
    1.5479832888e-02    9.9557125000e+04
    1.5489927493e-02    9.9566148438e+04
    1.5499756671e-02    9.9574625000e+04
    1.5509851277e-02    9.9583210938e+04
    1.5519945882e-02    9.9591757812e+04
    1.5529775061e-02    9.9599968750e+04
    1.5539870597e-02    9.9608226562e+04
    1.5549965203e-02    9.9616343750e+04
    1.5559795313e-02    9.9624117188e+04
    1.5569889918e-02    9.9631914062e+04
    1.5579985455e-02    9.9639375000e+04
    1.5589815564e-02    9.9646093750e+04
    1.5599910170e-02    9.9652281250e+04
    1.5609740280e-02    9.9657562500e+04
    1.5619835816e-02    9.9662281250e+04
    1.5629930422e-02    9.9666398438e+04
    1.5639761463e-02    9.9669968750e+04
    1.5649857000e-02    9.9673335938e+04
    1.5659952536e-02    9.9676437500e+04
    1.5669783577e-02    9.9679132812e+04
    1.5679879114e-02    9.9681437500e+04
    1.5689974651e-02    9.9683218750e+04
    1.5699805692e-02    9.9684398438e+04
    1.5709901229e-02    9.9684937500e+04
    1.5719996765e-02    9.9684757812e+04
    1.5729827806e-02    9.9683937500e+04
    1.5739923343e-02    9.9682648438e+04
    1.5749754384e-02    9.9681039062e+04
    1.5759849921e-02    9.9679085938e+04
    1.5769947320e-02    9.9676789062e+04
    1.5779778361e-02    9.9674195312e+04
    1.5789873898e-02    9.9671250000e+04
    1.5799971297e-02    9.9667976562e+04
    1.5809800476e-02    9.9664500000e+04
    1.5819897875e-02    9.9660148438e+04
    1.5829993412e-02    9.9654835938e+04
    1.5839824453e-02    9.9648445312e+04
    1.5849921852e-02    9.9641187500e+04
    1.5859752893e-02    9.9633625000e+04
    1.5869848430e-02    9.9625710938e+04
    1.5879945830e-02    9.9617601562e+04
    1.5889776871e-02    9.9609289062e+04
    1.5899874270e-02    9.9600257812e+04
    1.5909969807e-02    9.9590554688e+04
    1.5919800848e-02    9.9580414062e+04
    1.5929898247e-02    9.9569148438e+04
    1.5939995646e-02    9.9557085938e+04
    1.5949826688e-02    9.9544617188e+04
    1.5959922224e-02    9.9531281250e+04
    1.5969753265e-02    9.9517867188e+04
    1.5979850665e-02    9.9503773438e+04
    1.5989948064e-02    9.9489335938e+04
    1.5999779105e-02    9.9474750000e+04
    1.6009876505e-02    9.9458875000e+04
    1.6019972041e-02    9.9442007812e+04
    1.6029803082e-02    9.9424789062e+04
    1.6039900482e-02    9.9406664062e+04
    1.6049997881e-02    9.9388093750e+04
    1.6059828922e-02    9.9369742188e+04
    1.6069924459e-02    9.9350585938e+04
    1.6079757363e-02    9.9331460938e+04
    1.6089852899e-02    9.9311289062e+04
    1.6099950299e-02    9.9291125000e+04
    1.6109781340e-02    9.9270687500e+04
    1.6119878739e-02    9.9248968750e+04
    1.6129974276e-02    9.9226406250e+04
    1.6139807180e-02    9.9202601562e+04
    1.6149902716e-02    9.9177773438e+04
    1.6160000116e-02    9.9151398438e+04
    1.6169831157e-02    9.9126179688e+04
    1.6179928556e-02    9.9099210938e+04
    1.6189759597e-02    9.9073398438e+04
    1.6199855134e-02    9.9045968750e+04
    1.6209952533e-02    9.9018156250e+04
    1.6219783574e-02    9.8991148438e+04
    1.6229880974e-02    9.8962335938e+04
    1.6239976510e-02    9.8934156250e+04
    1.6249807552e-02    9.8905773438e+04
    1.6259904951e-02    9.8875460938e+04
    1.6269735992e-02    9.8845687500e+04
    1.6279833391e-02    9.8814132812e+04
    1.6289928928e-02    9.8781679688e+04
    1.6299759969e-02    9.8750132812e+04
    1.6309857368e-02    9.8717382812e+04
    1.6319952905e-02    9.8683562500e+04
    1.6329783946e-02    9.8650007812e+04
    1.6339881346e-02    9.8615343750e+04
    1.6349978745e-02    9.8580031250e+04
    1.6359807923e-02    9.8544843750e+04
    1.6369905323e-02    9.8508164062e+04
    1.6379736364e-02    9.8472007812e+04
    1.6389831901e-02    9.8434250000e+04
    1.6399929300e-02    9.8395820312e+04
    1.6409760341e-02    9.8357914062e+04
    1.6419855878e-02    9.8318476562e+04
    1.6429953277e-02    9.8278367188e+04
    1.6439784318e-02    9.8239210938e+04
    1.6449879855e-02    9.8197835938e+04
    1.6459977254e-02    9.8156289062e+04
    1.6469808295e-02    9.8115164062e+04
    1.6479903832e-02    9.8072398438e+04
    1.6489734873e-02    9.8030875000e+04
    1.6499830410e-02    9.7986773438e+04
    1.6509927809e-02    9.7943054688e+04
    1.6519756988e-02    9.7898968750e+04
    1.6529854387e-02    9.7853804688e+04
    1.6539949924e-02    9.7808132812e+04
    1.6549780965e-02    9.7762476562e+04
    1.6559878364e-02    9.7716195312e+04
    1.6569973901e-02    9.7667492188e+04
    1.6579804942e-02    9.7620835938e+04
    1.6589900479e-02    9.7571539062e+04
    1.6599997878e-02    9.7521414062e+04
    1.6609828919e-02    9.7472882812e+04
    1.6619926319e-02    9.7421531250e+04
    1.6629757360e-02    9.7371195312e+04
    1.6639854759e-02    9.7319335938e+04
    1.6649950296e-02    9.7266320312e+04
    1.6659783199e-02    9.7214195312e+04
    1.6669880599e-02    9.7160273438e+04
    1.6679977998e-02    9.7105585938e+04
    1.6689810902e-02    9.7051789062e+04
    1.6699910164e-02    9.6996125000e+04
    1.6709743068e-02    9.6941320312e+04
    1.6719840467e-02    9.6884476562e+04
    1.6729939729e-02    9.6827164062e+04
    1.6739774495e-02    9.6770601562e+04
    1.6749873757e-02    9.6711664062e+04
    1.6759973019e-02    9.6651750000e+04
    1.6769807786e-02    9.6592273438e+04
    1.6779907048e-02    9.6530757812e+04
    1.6789743677e-02    9.6470093750e+04
    1.6799844801e-02    9.6407039062e+04
    1.6809947789e-02    9.6344476562e+04
    1.6819784418e-02    9.6282210938e+04
    1.6829889268e-02    9.6218531250e+04
    1.6839992255e-02    9.6154039062e+04
    1.6849830747e-02    9.6091289062e+04
    1.6859933734e-02    9.6026460938e+04
    1.6869772226e-02    9.5963492188e+04
    1.6879875213e-02    9.5898289062e+04
    1.6889978200e-02    9.5832960938e+04
    1.6899816692e-02    9.5768562500e+04
    1.6909921542e-02    9.5702539062e+04
    1.6919760033e-02    9.5637414062e+04
    1.6929864883e-02    9.5570664062e+04
    1.6939971596e-02    9.5503414062e+04
    1.6949811950e-02    9.5437648438e+04
    1.6959918663e-02    9.5370242188e+04
    1.6969759017e-02    9.5304250000e+04
    1.6979867592e-02    9.5236429688e+04
    1.6989976168e-02    9.5168375000e+04
    1.6999820247e-02    9.5101289062e+04
    1.7009928823e-02    9.5032273438e+04
    1.7019771039e-02    9.4963960938e+04
    1.7029883340e-02    9.4892875000e+04
    1.7039993778e-02    9.4820351562e+04
    1.7049839720e-02    9.4748179688e+04
    1.7059952021e-02    9.4672625000e+04
    1.7069796100e-02    9.4596898438e+04
    1.7079910263e-02    9.4516468750e+04
    1.7089759931e-02    9.4429000000e+04
    1.7099874094e-02    9.4313367188e+04
    1.7109990120e-02    9.4136343750e+04
    1.7119839787e-02    9.3863429688e+04
    1.7129957676e-02    9.3464445312e+04
    1.7139812931e-02    9.2981335938e+04
    1.7149934545e-02    9.2424554688e+04
    1.7159787938e-02    9.1851445312e+04
    1.7169909552e-02    9.1247867188e+04
    1.7179768533e-02    9.0654500000e+04
    1.7189893872e-02    9.0044835938e+04
    1.7199752852e-02    8.9454273438e+04
    1.7209876329e-02    8.8853437500e+04
    1.7219737172e-02    8.8276312500e+04
    1.7229866236e-02    8.7694906250e+04
    1.7239997163e-02    8.7130695312e+04
    1.7249861732e-02    8.6608367188e+04
    1.7259990796e-02    8.6123898438e+04
    1.7269857228e-02    8.5763039062e+04
    1.7279991880e-02    8.5666125000e+04
    1.7289863899e-02    8.5816679688e+04
    1.7299734056e-02    8.5962468750e+04
    1.7309872434e-02    8.6012414062e+04
    1.7319744453e-02    8.6013148438e+04
    1.7329886556e-02    8.6020468750e+04
    1.7339764163e-02    8.6034437500e+04
    1.7349908128e-02    8.6046789062e+04
    1.7359783873e-02    8.6059312500e+04
    1.7369931564e-02    8.6074234375e+04
    1.7379814759e-02    8.6090078125e+04
    1.7389968038e-02    8.6107765625e+04
    1.7399853095e-02    8.6126359375e+04
    1.7409736291e-02    8.6146250000e+04
    1.7419889569e-02    8.6168023438e+04
    1.7429782078e-02    8.6190515625e+04
    1.7439942807e-02    8.6214843750e+04
    1.7449835315e-02    8.6239593750e+04
    1.7459992319e-02    8.6266007812e+04
    1.7469884828e-02    8.6292695312e+04
    1.7479784787e-02    8.6320359375e+04
    1.7489954829e-02    8.6349742188e+04
    1.7499854788e-02    8.6379164062e+04
    1.7509756610e-02    8.6409203125e+04
    1.7519926652e-02    8.6440593750e+04
    1.7529832199e-02    8.6471656250e+04
    1.7539741471e-02    8.6503226562e+04
    1.7549918965e-02    8.6536140625e+04
    1.7559830099e-02    8.6568578125e+04
    1.7569744959e-02    8.6601289062e+04
    1.7579929903e-02    8.6635023438e+04
    1.7589850351e-02    8.6667976562e+04
    1.7599767074e-02    8.6700992188e+04
    1.7609953880e-02    8.6734914062e+04
    1.7619878054e-02    8.6767898438e+04
    1.7629805952e-02    8.6800734375e+04
    1.7639735714e-02    8.6833320312e+04
    1.7649931833e-02    8.6866445312e+04
    1.7659859732e-02    8.6898367188e+04
    1.7669789493e-02    8.6930000000e+04
    1.7679994926e-02    8.6962171875e+04
    1.7689935863e-02    8.6993101562e+04
    1.7699876800e-02    8.7023531250e+04
    1.7709817737e-02    8.7053382812e+04
    1.7719758675e-02    8.7082632812e+04
    1.7729973421e-02    8.7112062500e+04
    1.7739921808e-02    8.7140148438e+04
    1.7749868333e-02    8.7167718750e+04
    1.7759818584e-02    8.7194750000e+04
    1.7769770697e-02    8.7221101562e+04
    1.7779994756e-02    8.7247367188e+04
    1.7789950594e-02    8.7272164062e+04
    1.7799910158e-02    8.7296296875e+04
    1.7809871584e-02    8.7319867188e+04
    1.7819836736e-02    8.7342843750e+04
    1.7829805613e-02    8.7365109375e+04
    1.7839776352e-02    8.7386476562e+04
    1.7849747092e-02    8.7406835938e+04
    1.7859984189e-02    8.7426710938e+04
    1.7869958654e-02    8.7445273438e+04
    1.7879936844e-02    8.7463226562e+04
    1.7889916897e-02    8.7480679688e+04
    1.7899896950e-02    8.7497523438e+04
    1.7909877002e-02    8.7513601562e+04
    1.7919857055e-02    8.7528812500e+04
    1.7929838970e-02    8.7543093750e+04
    1.7939828336e-02    8.7556476562e+04
    1.7949821427e-02    8.7569023438e+04
    1.7959814519e-02    8.7580812500e+04
    1.7969805747e-02    8.7591898438e+04
    1.7979802564e-02    8.7602312500e+04
    1.7989801243e-02    8.7612023438e+04
    1.7999799922e-02    8.7621000000e+04
    1.8009804189e-02    8.7629218750e+04
    1.8019810319e-02    8.7636648438e+04
    1.8029816449e-02    8.7643257812e+04
    1.8039826304e-02    8.7649085938e+04
    1.8049838021e-02    8.7654164062e+04
    1.8059851602e-02    8.7658523438e+04
    1.8069867045e-02    8.7662156250e+04
    1.8079888076e-02    8.7665070312e+04
    1.8089910969e-02    8.7667335938e+04
    1.8099932000e-02    8.7668992188e+04
    1.8109954894e-02    8.7670101562e+04
    1.8119979650e-02    8.7670601562e+04
    1.8129738048e-02    8.7670414062e+04
    1.8139773980e-02    8.7669406250e+04
    1.8149806187e-02    8.7667570312e+04
    1.8159843981e-02    8.7665000000e+04
    1.8169881776e-02    8.7661781250e+04
    1.8179919571e-02    8.7657976562e+04
    1.8189961091e-02    8.7653656250e+04
    1.8199736252e-02    8.7648945312e+04
    1.8209785223e-02    8.7643523438e+04
    1.8219834194e-02    8.7637414062e+04
    1.8229886889e-02    8.7630632812e+04
    1.8239939585e-02    8.7623289062e+04
    1.8249994144e-02    8.7615398438e+04
    1.8259778619e-02    8.7607117188e+04
    1.8269842491e-02    8.7597945312e+04
    1.8279908225e-02    8.7588156250e+04
    1.8289975822e-02    8.7577789062e+04
    1.8299769610e-02    8.7567210938e+04
    1.8309839070e-02    8.7555906250e+04
    1.8319912255e-02    8.7544242188e+04
    1.8329989165e-02    8.7532210938e+04
    1.8339795992e-02    8.7520117188e+04
    1.8349880353e-02    8.7507257812e+04
    1.8359960988e-02    8.7493851562e+04
    1.8369769678e-02    8.7480148438e+04
    1.8379859626e-02    8.7465289062e+04
    1.8389951438e-02    8.7449710938e+04
    1.8399773166e-02    8.7433875000e+04
    1.8409870565e-02    8.7417062500e+04
    1.8419969827e-02    8.7399835938e+04
    1.8429795280e-02    8.7382812500e+04
    1.8439894542e-02    8.7365132812e+04
    1.8449999392e-02    8.7347351562e+04
    1.8459839746e-02    8.7330015625e+04
    1.8469955772e-02    8.7312117188e+04
    1.8479797989e-02    8.7294453125e+04
    1.8489917740e-02    8.7275773438e+04
    1.8499765545e-02    8.7256921875e+04
    1.8509885296e-02    8.7236820312e+04
    1.8519734964e-02    8.7216679688e+04
    1.8529867753e-02    8.7195539062e+04
    1.8539726734e-02    8.7174656250e+04
    1.8549859524e-02    8.7152976562e+04
    1.8559996039e-02    8.7131125000e+04
    1.8569858745e-02    8.7109734375e+04
    1.8579995260e-02    8.7087617188e+04
    1.8589861691e-02    8.7066000000e+04
    1.8599735573e-02    8.7044273438e+04
    1.8609883264e-02    8.7021820312e+04
    1.8619755283e-02    8.6999914062e+04
    1.8629902974e-02    8.6977421875e+04
    1.8639782444e-02    8.6955523438e+04
    1.8649937585e-02    8.6932937500e+04
    1.8659817055e-02    8.6910960938e+04
    1.8669975922e-02    8.6888476562e+04
    1.8679862842e-02    8.6866679688e+04
    1.8689746037e-02    8.6844937500e+04
    1.8699906766e-02    8.6822617188e+04
    1.8709797412e-02    8.6800843750e+04
    1.8719967455e-02    8.6778367188e+04
    1.8729861826e-02    8.6756476562e+04
    1.8739759922e-02    8.6734523438e+04
    1.8749935552e-02    8.6711789062e+04
    1.8759829924e-02    8.6689476562e+04
    1.8769992515e-02    8.6666539062e+04
    1.8779888749e-02    8.6644421875e+04
    1.8789784983e-02    8.6622617188e+04
    1.8799949437e-02    8.6600375000e+04
    1.8809834495e-02    8.6578523438e+04
    1.8819985911e-02    8.6555593750e+04
    1.8829861656e-02    8.6532828125e+04
    1.8839748576e-02    8.6509882812e+04
    1.8849775195e-02    8.6486968750e+04
    1.8859971315e-02    8.6464578125e+04
    1.8869757652e-02    8.6444398438e+04
    1.8879987299e-02    8.6424906250e+04
    1.8889775500e-02    8.6407718750e+04
    1.8899701536e-02    8.6391421875e+04
    1.8909763545e-02    8.6375500000e+04
    1.8919961527e-02    8.6359203125e+04
    1.8929982558e-02    8.6342406250e+04
    1.8939811736e-02    8.6324929688e+04
    1.8949765712e-02    8.6306382812e+04
    1.8959835172e-02    8.6287218750e+04
    1.8969696015e-02    8.6268578125e+04
    1.8979668617e-02    8.6250296875e+04
    1.8989749253e-02    8.6232609375e+04
    1.8999945372e-02    8.6215484375e+04
    1.9009908661e-02    8.6199335938e+04
    1.9019972533e-02    8.6183445312e+04
    1.9029786810e-02    8.6168125000e+04
    1.9039705396e-02    8.6152679688e+04
    1.9049709663e-02    8.6137234375e+04
    1.9059818238e-02    8.6121921875e+04
    1.9069658592e-02    8.6107390625e+04
    1.9079942256e-02    8.6092664062e+04
    1.9089957699e-02    8.6078804688e+04
    1.9099673256e-02    8.6065757812e+04
    1.9109843299e-02    8.6052515625e+04
    1.9119707868e-02    8.6040148438e+04
    1.9129628316e-02    8.6028171875e+04
    1.9139993936e-02    8.6016171875e+04
    1.9149966538e-02    8.6005109375e+04
    1.9159933552e-02    8.5994515625e+04
    1.9169885665e-02    8.5984398438e+04
    1.9179828465e-02    8.5974734375e+04
    1.9189769402e-02    8.5965453125e+04
    1.9199959934e-02    8.5956312500e+04
    1.9209906459e-02    8.5947820312e+04
    1.9219864160e-02    8.5939906250e+04
    1.9229834899e-02    8.5932640625e+04
    1.9239829853e-02    8.5925960938e+04
    1.9249832258e-02    8.5919796875e+04
    1.9259864464e-02    8.5914093750e+04
    1.9269933924e-02    8.5908765625e+04
    1.9279778004e-02    8.5903804688e+04
    1.9289895892e-02    8.5898953125e+04
    1.9299769774e-02    8.5894554688e+04
    1.9309902564e-02    8.5890476562e+04
    1.9319789484e-02    8.5886882812e+04
    1.9329940900e-02    8.5883640625e+04
    1.9339861348e-02    8.5881007812e+04
    1.9349804148e-02    8.5878820312e+04
    1.9359767437e-02    8.5877132812e+04
    1.9369762391e-02    8.5876234375e+04
    1.9379783422e-02    8.5876140625e+04
    1.9389830530e-02    8.5876671875e+04
    1.9399899989e-02    8.5877804688e+04
    1.9409986213e-02    8.5879445312e+04
    1.9419828430e-02    8.5881429688e+04
    1.9429944456e-02    8.5883859375e+04
    1.9439809024e-02    8.5886531250e+04
[...]
    1.1513993889e-01    1.0121803906e+05
    1.1514985561e-01    1.0121803125e+05
    1.1515977979e-01    1.0121802344e+05
    1.1516969651e-01    1.0121800781e+05
    1.1517992616e-01    1.0121800000e+05
    1.1518984288e-01    1.0121800000e+05
    1.1519975960e-01    1.0121799219e+05
    1.1520998925e-01    1.0121799219e+05
    1.1521991342e-01    1.0121797656e+05
    1.1522983015e-01    1.0121797656e+05
    1.1523974687e-01    1.0121796875e+05
    1.1524997652e-01    1.0121796094e+05
    1.1525989324e-01    1.0121794531e+05
    1.1526980996e-01    1.0121793750e+05
    1.1527973413e-01    1.0121792969e+05
    1.1528996378e-01    1.0121792969e+05
    1.1529988050e-01    1.0121792969e+05
    1.1530979723e-01    1.0121792969e+05
    1.1531971395e-01    1.0121793750e+05
    1.1532994360e-01    1.0121793750e+05
    1.1533986032e-01    1.0121793750e+05
    1.1534978449e-01    1.0121793750e+05
    1.1535970122e-01    1.0121792969e+05
    1.1536993086e-01    1.0121791406e+05
    1.1537984759e-01    1.0121791406e+05
    1.1538976431e-01    1.0121791406e+05
    1.1539999396e-01    1.0121791406e+05
    1.1540991813e-01    1.0121792969e+05
    1.1541983485e-01    1.0121792969e+05
    1.1542975157e-01    1.0121793750e+05
    1.1543998122e-01    1.0121793750e+05
    1.1544989794e-01    1.0121792969e+05
    1.1545981467e-01    1.0121792969e+05
    1.1546973884e-01    1.0121791406e+05
    1.1547996849e-01    1.0121790625e+05
    1.1548988521e-01    1.0121789844e+05
    1.1549980193e-01    1.0121788281e+05
    1.1550971866e-01    1.0121786719e+05
    1.1551994830e-01    1.0121785156e+05
    1.1552986503e-01    1.0121783594e+05
    1.1553978920e-01    1.0121781250e+05
    1.1554970592e-01    1.0121778906e+05
    1.1555993557e-01    1.0121778906e+05
    1.1556985229e-01    1.0121777344e+05
    1.1557976902e-01    1.0121777344e+05
    1.1558969319e-01    1.0121777344e+05
    1.1559992284e-01    1.0121777344e+05
    1.1560983956e-01    1.0121775781e+05
    1.1561975628e-01    1.0121775781e+05
    1.1562998593e-01    1.0121775781e+05
    1.1563990265e-01    1.0121777344e+05
    1.1564981937e-01    1.0121777344e+05
    1.1565974355e-01    1.0121777344e+05
    1.1566997319e-01    1.0121777344e+05
    1.1567988992e-01    1.0121777344e+05
    1.1568980664e-01    1.0121777344e+05
    1.1569972336e-01    1.0121777344e+05
    1.1570995301e-01    1.0121777344e+05
    1.1571986973e-01    1.0121777344e+05
    1.1572979391e-01    1.0121777344e+05
    1.1573971063e-01    1.0121777344e+05
    1.1574994028e-01    1.0121775781e+05
    1.1575985700e-01    1.0121775781e+05
    1.1576977372e-01    1.0121775781e+05
    1.1577969790e-01    1.0121775781e+05
    1.1578992754e-01    1.0121775781e+05
    1.1579984426e-01    1.0121775000e+05
    1.1580976099e-01    1.0121775000e+05
    1.1581999063e-01    1.0121774219e+05
    1.1582990736e-01    1.0121772656e+05
    1.1583982408e-01    1.0121772656e+05
    1.1584974825e-01    1.0121772656e+05
    1.1585997790e-01    1.0121771875e+05
    1.1586989462e-01    1.0121771094e+05
    1.1587981135e-01    1.0121771094e+05
    1.1588972807e-01    1.0121769531e+05
    1.1589995772e-01    1.0121767969e+05
    1.1590988189e-01    1.0121766406e+05
    1.1591979861e-01    1.0121765625e+05
    1.1592971534e-01    1.0121764844e+05
    1.1593994498e-01    1.0121763281e+05
    1.1594986171e-01    1.0121762500e+05
    1.1595977843e-01    1.0121761719e+05
    1.1596970260e-01    1.0121760156e+05
    1.1597993225e-01    1.0121760156e+05
    1.1598984897e-01    1.0121760156e+05
    1.1599976569e-01    1.0121761719e+05
    1.1600999534e-01    1.0121762500e+05
    1.1601991206e-01    1.0121762500e+05
    1.1602982879e-01    1.0121763281e+05
    1.1603975296e-01    1.0121764844e+05
    1.1604998261e-01    1.0121764844e+05
    1.1605989933e-01    1.0121764844e+05
    1.1606981605e-01    1.0121763281e+05
    1.1607973278e-01    1.0121761719e+05
    1.1608996242e-01    1.0121760156e+05
    1.1609988660e-01    1.0121758594e+05
    1.1610980332e-01    1.0121758594e+05
    1.1611972004e-01    1.0121756250e+05
    1.1612994969e-01    1.0121756250e+05
    1.1613986641e-01    1.0121755469e+05
    1.1614978313e-01    1.0121755469e+05
    1.1615970731e-01    1.0121756250e+05
    1.1616993695e-01    1.0121756250e+05
    1.1617985368e-01    1.0121756250e+05
    1.1618977040e-01    1.0121756250e+05
    1.1620000005e-01    1.0121756250e+05
    1.1620991677e-01    1.0121755469e+05
    1.1621984094e-01    1.0121753906e+05
    1.1622975767e-01    1.0121752344e+05
    1.1623998731e-01    1.0121750781e+05
    1.1624990404e-01    1.0121749219e+05
    1.1625982076e-01    1.0121747656e+05
    1.1626973748e-01    1.0121747656e+05
    1.1627996713e-01    1.0121747656e+05
    1.1628989130e-01    1.0121749219e+05
    1.1629980803e-01    1.0121749219e+05
    1.1630972475e-01    1.0121749219e+05
    1.1631995440e-01    1.0121749219e+05
    1.1632987112e-01    1.0121749219e+05
    1.1633978784e-01    1.0121747656e+05
    1.1634971201e-01    1.0121747656e+05
    1.1635994166e-01    1.0121747656e+05
    1.1636985838e-01    1.0121746875e+05
    1.1637977511e-01    1.0121746875e+05
    1.1638969183e-01    1.0121746094e+05
    1.1639992148e-01    1.0121746094e+05
    1.1640984565e-01    1.0121746094e+05
    1.1641976237e-01    1.0121744531e+05
    1.1642999202e-01    1.0121744531e+05
    1.1643990874e-01    1.0121743750e+05
    1.1644982547e-01    1.0121743750e+05
    1.1645974219e-01    1.0121742969e+05
    1.1646997184e-01    1.0121742969e+05
    1.1647989601e-01    1.0121741406e+05
    1.1648981273e-01    1.0121741406e+05
    1.1649972945e-01    1.0121741406e+05
    1.1650995910e-01    1.0121740625e+05
    1.1651987582e-01    1.0121739844e+05
    1.1652980000e-01    1.0121739844e+05
    1.1653971672e-01    1.0121739844e+05
    1.1654994637e-01    1.0121738281e+05
    1.1655986309e-01    1.0121737500e+05
    1.1656977981e-01    1.0121737500e+05
    1.1657969654e-01    1.0121736719e+05
    1.1658992618e-01    1.0121735156e+05
    1.1659985036e-01    1.0121735156e+05
    1.1660976708e-01    1.0121735156e+05
    1.1661999673e-01    1.0121735156e+05
    1.1662991345e-01    1.0121735156e+05
    1.1663983017e-01    1.0121735156e+05
    1.1664974689e-01    1.0121734375e+05
    1.1665997654e-01    1.0121734375e+05
    1.1666990072e-01    1.0121734375e+05
    1.1667981744e-01    1.0121733594e+05
    1.1668973416e-01    1.0121733594e+05
    1.1669996381e-01    1.0121732031e+05
    1.1670988053e-01    1.0121732031e+05
    1.1671980470e-01    1.0121731250e+05
    1.1672972143e-01    1.0121730469e+05
    1.1673995107e-01    1.0121728906e+05
    1.1674986780e-01    1.0121728906e+05
    1.1675978452e-01    1.0121728906e+05
    1.1676970124e-01    1.0121728906e+05
    1.1677993089e-01    1.0121728125e+05
    1.1678985506e-01    1.0121728125e+05
    1.1679977179e-01    1.0121727344e+05
    1.1681000143e-01    1.0121727344e+05
    1.1681991816e-01    1.0121727344e+05
    1.1682983488e-01    1.0121727344e+05
    1.1683975905e-01    1.0121725781e+05
    1.1684998125e-01    1.0121725781e+05
    1.1685990542e-01    1.0121725000e+05
    1.1686982214e-01    1.0121725000e+05
    1.1687973887e-01    1.0121724219e+05
    1.1688996851e-01    1.0121722656e+05
    1.1689988524e-01    1.0121722656e+05
    1.1690980941e-01    1.0121722656e+05
    1.1691972613e-01    1.0121721875e+05
    1.1692995578e-01    1.0121721875e+05
    1.1693987250e-01    1.0121721094e+05
    1.1694978923e-01    1.0121721094e+05
    1.1695970595e-01    1.0121721094e+05
    1.1696993560e-01    1.0121721094e+05
    1.1697985977e-01    1.0121721094e+05
    1.1698977649e-01    1.0121719531e+05
    1.1699969321e-01    1.0121718750e+05
    1.1700992286e-01    1.0121718750e+05
    1.1701983958e-01    1.0121717969e+05
    1.1702976376e-01    1.0121716406e+05
    1.1703998595e-01    1.0121716406e+05
    1.1704991013e-01    1.0121716406e+05
    1.1705982685e-01    1.0121716406e+05
    1.1706974357e-01    1.0121716406e+05
    1.1707997322e-01    1.0121716406e+05
    1.1708988994e-01    1.0121715625e+05
    1.1709981412e-01    1.0121715625e+05
    1.1710973084e-01    1.0121715625e+05
    1.1711996049e-01    1.0121714844e+05
    1.1712987721e-01    1.0121714844e+05
    1.1713979393e-01    1.0121714844e+05
    1.1714971811e-01    1.0121713281e+05
    1.1715994030e-01    1.0121712500e+05
    1.1716986448e-01    1.0121711719e+05
    1.1717978120e-01    1.0121710156e+05
    1.1718969792e-01    1.0121710156e+05
    1.1719992757e-01    1.0121710156e+05
    1.1720984429e-01    1.0121709375e+05
    1.1721976846e-01    1.0121709375e+05
    1.1722999066e-01    1.0121709375e+05
    1.1723991483e-01    1.0121708594e+05
    1.1724983156e-01    1.0121708594e+05
    1.1725974828e-01    1.0121708594e+05
    1.1726997793e-01    1.0121708594e+05
    1.1727989465e-01    1.0121708594e+05
    1.1728981882e-01    1.0121707031e+05
    1.1729973555e-01    1.0121707031e+05
    1.1730996519e-01    1.0121706250e+05
    1.1731988192e-01    1.0121706250e+05
    1.1732979864e-01    1.0121705469e+05
    1.1733972281e-01    1.0121703906e+05
    1.1734994501e-01    1.0121703906e+05
    1.1735986918e-01    1.0121703906e+05
    1.1736978590e-01    1.0121703906e+05
    1.1737970263e-01    1.0121703125e+05
    1.1738993227e-01    1.0121703125e+05
    1.1739984900e-01    1.0121702344e+05
    1.1740977317e-01    1.0121702344e+05
    1.1742000282e-01    1.0121700781e+05
    1.1742991954e-01    1.0121700000e+05
    1.1743983626e-01    1.0121700000e+05
    1.1744975299e-01    1.0121700000e+05
    1.1745998263e-01    1.0121700000e+05
    1.1746989936e-01    1.0121700000e+05
    1.1747982353e-01    1.0121699219e+05
    1.1748974025e-01    1.0121699219e+05
    1.1749996990e-01    1.0121699219e+05
    1.1750988662e-01    1.0121697656e+05
    1.1751980335e-01    1.0121697656e+05
    1.1752972752e-01    1.0121696875e+05
    1.1753994972e-01    1.0121696094e+05
    1.1754987389e-01    1.0121696094e+05
    1.1755979061e-01    1.0121694531e+05
    1.1756970733e-01    1.0121693750e+05
    1.1757993698e-01    1.0121693750e+05
    1.1758985370e-01    1.0121692969e+05
    1.1759977788e-01    1.0121692969e+05
    1.1760969460e-01    1.0121691406e+05
    1.1761992425e-01    1.0121691406e+05
    1.1762984097e-01    1.0121691406e+05
    1.1763975769e-01    1.0121691406e+05
    1.1764998734e-01    1.0121691406e+05
    1.1765990406e-01    1.0121691406e+05
    1.1766982824e-01    1.0121690625e+05
    1.1767974496e-01    1.0121690625e+05
    1.1768997461e-01    1.0121689844e+05
    1.1769989133e-01    1.0121689844e+05
    1.1770980805e-01    1.0121689844e+05
    1.1771973222e-01    1.0121688281e+05
    1.1772996187e-01    1.0121687500e+05
    1.1773987859e-01    1.0121686719e+05
    1.1774979532e-01    1.0121685156e+05
    1.1775971204e-01    1.0121685156e+05
    1.1776994169e-01    1.0121684375e+05
    1.1777986586e-01    1.0121684375e+05
    1.1778978258e-01    1.0121683594e+05
    1.1779969931e-01    1.0121683594e+05
    1.1780992895e-01    1.0121683594e+05
    1.1781984568e-01    1.0121683594e+05
    1.1782976240e-01    1.0121683594e+05
    1.1783999205e-01    1.0121683594e+05
    1.1784991622e-01    1.0121683594e+05
    1.1785983294e-01    1.0121683594e+05
    1.1786974967e-01    1.0121682031e+05
    1.1787997931e-01    1.0121682031e+05
    1.1788989604e-01    1.0121681250e+05
    1.1789982021e-01    1.0121681250e+05
    1.1790973693e-01    1.0121680469e+05
    1.1791996658e-01    1.0121678906e+05
    1.1792988330e-01    1.0121678906e+05
    1.1793980002e-01    1.0121678906e+05
    1.1794971675e-01    1.0121678125e+05
    1.1795994639e-01    1.0121677344e+05
    1.1796987057e-01    1.0121677344e+05
    1.1797978729e-01    1.0121677344e+05
    1.1798970401e-01    1.0121677344e+05
    1.1799993366e-01    1.0121675781e+05
    1.1800985038e-01    1.0121675781e+05
    1.1801977456e-01    1.0121675000e+05
    1.1802999675e-01    1.0121674219e+05
    1.1803992093e-01    1.0121674219e+05
    1.1804983765e-01    1.0121672656e+05
    1.1805975437e-01    1.0121672656e+05
    1.1806998402e-01    1.0121672656e+05
    1.1807990074e-01    1.0121672656e+05
    1.1808982491e-01    1.0121671875e+05
    1.1809974164e-01    1.0121671875e+05
    1.1810997128e-01    1.0121671094e+05
    1.1811988801e-01    1.0121671094e+05
    1.1812980473e-01    1.0121671094e+05
    1.1813972890e-01    1.0121671094e+05
    1.1814995110e-01    1.0121669531e+05
    1.1815987527e-01    1.0121669531e+05
    1.1816979200e-01    1.0121668750e+05
    1.1817970872e-01    1.0121668750e+05
    1.1818993837e-01    1.0121667969e+05
    1.1819985509e-01    1.0121667969e+05
    1.1820977926e-01    1.0121667969e+05
    1.1821969599e-01    1.0121666406e+05
    1.1822992563e-01    1.0121666406e+05
    1.1823984236e-01    1.0121666406e+05
    1.1824975908e-01    1.0121666406e+05
    1.1825998873e-01    1.0121666406e+05
    1.1826990545e-01    1.0121665625e+05
    1.1827982962e-01    1.0121664844e+05
    1.1828974634e-01    1.0121664844e+05
    1.1829997599e-01    1.0121664844e+05
    1.1830989271e-01    1.0121663281e+05
    1.1831980944e-01    1.0121662500e+05
    1.1832973361e-01    1.0121661719e+05
    1.1833996326e-01    1.0121661719e+05
    1.1834987998e-01    1.0121660156e+05
    1.1835979670e-01    1.0121660156e+05
    1.1836971343e-01    1.0121660156e+05
    1.1837994307e-01    1.0121660156e+05
    1.1838986725e-01    1.0121659375e+05
    1.1839978397e-01    1.0121659375e+05
    1.1840970069e-01    1.0121659375e+05
    1.1841993034e-01    1.0121658594e+05
    1.1842984706e-01    1.0121658594e+05
    1.1843976378e-01    1.0121658594e+05
    1.1844999343e-01    1.0121658594e+05
    1.1845991760e-01    1.0121658594e+05
    1.1846983433e-01    1.0121657031e+05
    1.1847975105e-01    1.0121656250e+05
    1.1848998070e-01    1.0121656250e+05
    1.1849989742e-01    1.0121655469e+05
    1.1850982159e-01    1.0121653906e+05
    1.1851973832e-01    1.0121653906e+05
    1.1852996796e-01    1.0121653906e+05
    1.1853988469e-01    1.0121653125e+05
    1.1854980141e-01    1.0121652344e+05
    1.1855971813e-01    1.0121652344e+05
    1.1856994778e-01    1.0121652344e+05
    1.1857987195e-01    1.0121650781e+05
    1.1858978868e-01    1.0121650781e+05
    1.1859970540e-01    1.0121650000e+05
    1.1860993505e-01    1.0121650000e+05
    1.1861985177e-01    1.0121649219e+05
    1.1862977594e-01    1.0121649219e+05
    1.1863969266e-01    1.0121647656e+05
    1.1864992231e-01    1.0121647656e+05
    1.1865983903e-01    1.0121647656e+05
    1.1866975576e-01    1.0121646875e+05
    1.1867998540e-01    1.0121646094e+05
    1.1868990213e-01    1.0121646094e+05
    1.1869982630e-01    1.0121644531e+05
    1.1870974302e-01    1.0121643750e+05
    1.1871997267e-01    1.0121642969e+05
    1.1872988939e-01    1.0121642969e+05
    1.1873980612e-01    1.0121643750e+05
    1.1874973029e-01    1.0121643750e+05
    1.1875995249e-01    1.0121644531e+05
    1.1876987666e-01    1.0121646094e+05
    1.1877979338e-01    1.0121646094e+05
    1.1878971010e-01    1.0121646094e+05
    1.1879993975e-01    1.0121646094e+05
    1.1880985647e-01    1.0121646094e+05
    1.1881978065e-01    1.0121646094e+05
    1.1882969737e-01    1.0121646094e+05
    1.1883992702e-01    1.0121644531e+05
    1.1884984374e-01    1.0121644531e+05
    1.1885976046e-01    1.0121643750e+05
    1.1886999011e-01    1.0121643750e+05
    1.1887991428e-01    1.0121642969e+05
    1.1888983101e-01    1.0121641406e+05
    1.1889974773e-01    1.0121641406e+05
    1.1890997738e-01    1.0121641406e+05
    1.1891989410e-01    1.0121640625e+05
    1.1892981082e-01    1.0121639844e+05
    1.1893973500e-01    1.0121639844e+05
    1.1894996464e-01    1.0121638281e+05
    1.1895988137e-01    1.0121637500e+05
    1.1896979809e-01    1.0121636719e+05
    1.1897971481e-01    1.0121635156e+05
    1.1898994446e-01    1.0121635156e+05
    1.1899986863e-01    1.0121634375e+05
    1.1900978535e-01    1.0121633594e+05
    1.1901970208e-01    1.0121632031e+05
    1.1902993172e-01    1.0121631250e+05
    1.1903984845e-01    1.0121630469e+05
    1.1904976517e-01    1.0121628906e+05
    1.1905999482e-01    1.0121628906e+05
    1.1906991899e-01    1.0121628125e+05
    1.1907983571e-01    1.0121628125e+05
    1.1908975244e-01    1.0121628125e+05
    1.1909998208e-01    1.0121628906e+05
    1.1910989881e-01    1.0121628906e+05
    1.1911982298e-01    1.0121630469e+05
    1.1912973970e-01    1.0121631250e+05
    1.1913996935e-01    1.0121632031e+05
    1.1914988607e-01    1.0121633594e+05
    1.1915980279e-01    1.0121634375e+05
    1.1916972697e-01    1.0121634375e+05
    1.1917994916e-01    1.0121635156e+05
    1.1918987334e-01    1.0121634375e+05
    1.1919979006e-01    1.0121633594e+05
    1.1920970678e-01    1.0121632031e+05
    1.1921993643e-01    1.0121628906e+05
    1.1922985315e-01    1.0121627344e+05
    1.1923977733e-01    1.0121625781e+05
    1.1924969405e-01    1.0121622656e+05
    1.1925992370e-01    1.0121621875e+05
    1.1926984042e-01    1.0121621094e+05
    1.1927975714e-01    1.0121621875e+05
    1.1928998679e-01    1.0121621875e+05
    1.1929990351e-01    1.0121622656e+05
    1.1930982769e-01    1.0121622656e+05
    1.1931974441e-01    1.0121622656e+05
    1.1932997406e-01    1.0121622656e+05
    1.1933989078e-01    1.0121621875e+05
    1.1934980750e-01    1.0121621094e+05
    1.1935973167e-01    1.0121619531e+05
    1.1936996132e-01    1.0121616406e+05
    1.1937987804e-01    1.0121615625e+05
    1.1938979477e-01    1.0121613281e+05
    1.1939971149e-01    1.0121612500e+05
    1.1940994114e-01    1.0121611719e+05
    1.1941985786e-01    1.0121611719e+05
    1.1942978203e-01    1.0121612500e+05
    1.1943969876e-01    1.0121614844e+05
    1.1944992840e-01    1.0121614844e+05
    1.1945984513e-01    1.0121616406e+05
    1.1946976185e-01    1.0121616406e+05
    1.1947999150e-01    1.0121617969e+05
    1.1948991567e-01    1.0121617969e+05
    1.1949983239e-01    1.0121617969e+05
    1.1950974911e-01    1.0121617969e+05
    1.1951997876e-01    1.0121616406e+05
    1.1952989548e-01    1.0121616406e+05
    1.1953981966e-01    1.0121615625e+05
    1.1954973638e-01    1.0121614844e+05
    1.1955996603e-01    1.0121612500e+05
    1.1956988275e-01    1.0121611719e+05
    1.1957979947e-01    1.0121610156e+05
    1.1958971620e-01    1.0121610156e+05
    1.1959994584e-01    1.0121610156e+05
    1.1960987002e-01    1.0121610156e+05
    1.1961978674e-01    1.0121610156e+05
    1.1962970346e-01    1.0121611719e+05
    1.1963993311e-01    1.0121611719e+05
    1.1964984983e-01    1.0121610156e+05
    1.1965977401e-01    1.0121610156e+05
    1.1966999620e-01    1.0121608594e+05
    1.1967992038e-01    1.0121608594e+05
    1.1968983710e-01    1.0121606250e+05
    1.1969975382e-01    1.0121605469e+05
    1.1970998347e-01    1.0121603906e+05
    1.1971990019e-01    1.0121603906e+05
    1.1972982436e-01    1.0121603906e+05
    1.1973974109e-01    1.0121603906e+05
    1.1974997073e-01    1.0121603906e+05
    1.1975988746e-01    1.0121603906e+05
    1.1976980418e-01    1.0121603906e+05
    1.1977972835e-01    1.0121603906e+05
    1.1978995055e-01    1.0121603906e+05
    1.1979987472e-01    1.0121603125e+05
    1.1980979145e-01    1.0121602344e+05
    1.1981970817e-01    1.0121602344e+05
    1.1982993782e-01    1.0121600781e+05
    1.1983985454e-01    1.0121600781e+05
    1.1984977871e-01    1.0121600000e+05
    1.1985969543e-01    1.0121600000e+05
    1.1986992508e-01    1.0121599219e+05
    1.1987984180e-01    1.0121597656e+05
    1.1988975853e-01    1.0121597656e+05
    1.1989998817e-01    1.0121597656e+05
    1.1990991235e-01    1.0121597656e+05
    1.1991982907e-01    1.0121597656e+05
    1.1992974579e-01    1.0121597656e+05
    1.1993997544e-01    1.0121597656e+05
    1.1994989216e-01    1.0121597656e+05
    1.1995980889e-01    1.0121597656e+05
    1.1996973306e-01    1.0121597656e+05
    1.1997996271e-01    1.0121596875e+05
    1.1998987943e-01    1.0121596875e+05
    1.1999979615e-01    1.0121596094e+05
endcurve
