Curveplot
LS-DYNA keyword deck by LS-PrePost                          
Time
Pressure
Defined Connection
Pressure @ 49 #pts=14001
* Minval=     9.6703843750e+04 at time=         0.0758896992
* Maxval=     1.1232488281e+05 at time=         0.0576899648
    0.0000000000e+00    1.0120000000e+05
    9.9483822851e-06    1.0120000000e+05
    1.9897132006e-05    1.0120000000e+05
    2.9969511161e-05    1.0120000000e+05
    3.9988201024e-05    1.0120000000e+05
    4.9980368203e-05    1.0120000000e+05
    5.9964226239e-05    1.0120000000e+05
    6.9938352681e-05    1.0120000000e+05
    7.9985584307e-05    1.0120000000e+05
    8.9991197456e-05    1.0120000000e+05
    9.9950142612e-05    1.0120000000e+05
    1.0998529615e-04    1.0120000000e+05
    1.1994292436e-04    1.0120000000e+05
    1.2995708676e-04    1.0120000000e+05
    1.3994582696e-04    1.0120000000e+05
    1.4997529797e-04    1.0120000000e+05
    1.5996000730e-04    1.0120000000e+05
    1.6996868362e-04    1.0120000000e+05
    1.7999402189e-04    1.0120000000e+05
    1.8994582933e-04    1.0120000000e+05
    1.9998103380e-04    1.0120000000e+05
    2.0992475038e-04    1.0120000000e+05
    2.1993916016e-04    1.0120000000e+05
    2.2993214952e-04    1.0120000000e+05
    2.3998545657e-04    1.0120000000e+05
    2.4991313694e-04    1.0120000000e+05
    2.5997954071e-04    1.0120000000e+05
    2.6999684633e-04    1.0120000000e+05
    2.7995565324e-04    1.0120000000e+05
    2.8993646265e-04    1.0120000000e+05
    2.9992661439e-04    1.0120000000e+05
    3.0992325628e-04    1.0120000000e+05
    3.1992496224e-04    1.0120000000e+05
    3.2992984052e-04    1.0120000000e+05
    3.3993608668e-04    1.0120000000e+05
    3.4994177986e-04    1.0120000000e+05
    3.5994520294e-04    1.0120000000e+05
    3.6994460970e-04    1.0120000000e+05
    3.7993816659e-04    1.0120000000e+05
    3.8992418558e-04    1.0120000000e+05
    3.9990118239e-04    1.0120000000e+05
    4.0997506585e-04    1.0120000000e+05
    4.1992962360e-04    1.0120000000e+05
    4.2997978744e-04    1.0120000000e+05
    4.3990529957e-04    1.0120000000e+05
    4.4992502080e-04    1.0120000000e+05
    4.5992739615e-04    1.0120000000e+05
    4.6991062118e-04    1.0120000000e+05
    4.7998785158e-04    1.0120000000e+05
    4.8992806114e-04    1.0120000000e+05
    4.9996061716e-04    1.0120000000e+05
    5.0996866776e-04    1.0120000000e+05
    5.1995035028e-04    1.0120000000e+05
    5.2990374388e-04    1.0120000000e+05
    5.3994834889e-04    1.0120000000e+05
    5.4996303516e-04    1.0120000000e+05
    5.5994576542e-04    1.0120000000e+05
    5.6989467703e-04    1.0120000000e+05
    5.7993386872e-04    1.0120000000e+05
    5.8993755374e-04    1.0120000000e+05
    5.9990363661e-04    1.0120000000e+05
    6.0995959211e-04    1.0120000000e+05
    6.1997619923e-04    1.0120000000e+05
    6.2995124608e-04    1.0120000000e+05
    6.3988269540e-04    1.0120000000e+05
    6.4990238752e-04    1.0120000000e+05
    6.5987638664e-04    1.0120000000e+05
    6.6993903602e-04    1.0120000000e+05
    6.7995383870e-04    1.0120000000e+05
    6.8991846638e-04    1.0120000000e+05
    6.9997092942e-04    1.0120000000e+05
    7.0997094736e-04    1.0120000000e+05
    7.1991619188e-04    1.0120000000e+05
    7.2994816583e-04    1.0120000000e+05
    7.3992286343e-04    1.0120000000e+05
    7.4998429045e-04    1.0120000000e+05
    7.5998605462e-04    1.0120000000e+05
    7.6992542017e-04    1.0120000000e+05
    7.7995011816e-04    1.0120000000e+05
    7.8990979819e-04    1.0120000000e+05
    7.9995457781e-04    1.0120000000e+05
    8.0993160373e-04    1.0120000000e+05
    8.1999349641e-04    1.0120000000e+05
    8.2998478319e-04    1.0120000000e+05
    8.3990255371e-04    1.0120000000e+05
    8.4990327014e-04    1.0120000000e+05
    8.5998821305e-04    1.0120000000e+05
    8.6999638006e-04    1.0120000000e+05
    8.7992474437e-04    1.0120000000e+05
    8.8993529789e-04    1.0120000000e+05
    8.9986284729e-04    1.0120000000e+05
    9.0987194562e-04    1.0120000000e+05
    9.1996346600e-04    1.0120000000e+05
    9.2996819876e-04    1.0120000000e+05
    9.3988300068e-04    1.0120000000e+05
    9.4987772172e-04    1.0120000000e+05
    9.5995352603e-04    1.0120000000e+05
    9.6993532497e-04    1.0120000000e+05
    9.7999745049e-04    1.0120000000e+05
    9.8996213637e-04    1.0120000000e+05
    9.9982612301e-04    1.0120000000e+05
    1.0099490173e-03    1.0120000000e+05
    1.0199703975e-03    1.0120000000e+05
    1.0298870038e-03    1.0120000000e+05
    1.0398809100e-03    1.0120000000e+05
    1.0499535128e-03    1.0120000000e+05
    1.0599166853e-03    1.0120000000e+05
    1.0699573904e-03    1.0120000000e+05
    1.0798849398e-03    1.0120000000e+05
    1.0898888577e-03    1.0120000000e+05
    1.0999703081e-03    1.0120000000e+05
    1.1099341791e-03    1.0120000000e+05
    1.1199741857e-03    1.0120000000e+05
    1.1298928875e-03    1.0120000000e+05
    1.1398866773e-03    1.0120000000e+05
    1.1499569518e-03    1.0120000000e+05
    1.1599010322e-03    1.0120000000e+05
    1.1699205497e-03    1.0120000000e+05
    1.1798094492e-03    1.0120000000e+05
    1.1899811216e-03    1.0120000000e+05
    1.1998113478e-03    1.0120000000e+05
    1.2099263258e-03    1.0120000000e+05
    1.2199052144e-03    1.0120000000e+05
    1.2299596565e-03    1.0120000000e+05
    1.2398738181e-03    1.0120000000e+05
    1.2498619035e-03    1.0120000000e+05
    1.2599249603e-03    1.0120000000e+05
    1.2698430801e-03    1.0120000000e+05
    1.2798348907e-03    1.0120000000e+05
    1.2899016729e-03    1.0120000000e+05
    1.2998185121e-03    1.0120000000e+05
    1.3098081108e-03    1.0120000000e+05
    1.3198730303e-03    1.0120000000e+05
    1.3297818368e-03    1.0120000000e+05
    1.3399980962e-03    1.0120000000e+05
    1.3498212211e-03    1.0120000000e+05
    1.3599531958e-03    1.0120000000e+05
    1.3699242845e-03    1.0120000000e+05
    1.3799697626e-03    1.0120000000e+05
    1.3898485340e-03    1.0120000000e+05
    1.3997994829e-03    1.0120000000e+05
    1.4098235406e-03    1.0120000000e+05
    1.4199240832e-03    1.0120000000e+05
    1.4298512833e-03    1.0120000000e+05
    1.4398514759e-03    1.0120000000e+05
    1.4499266399e-03    1.0120000000e+05
    1.4598231064e-03    1.0120000000e+05
    1.4697922161e-03    1.0120000000e+05
    1.4798353659e-03    1.0120000000e+05
    1.4899541857e-03    1.0120000000e+05
    1.4998870902e-03    1.0120000000e+05
    1.5098939184e-03    1.0120000000e+05
    1.5199757181e-03    1.0120000000e+05
    1.5298650833e-03    1.0120000000e+05
    1.5398273245e-03    1.0120000000e+05
    1.5498645371e-03    1.0120000000e+05
    1.5599769540e-03    1.0120000000e+05
    1.5698900679e-03    1.0120000000e+05
    1.5798766399e-03    1.0120000000e+05
    1.5899384161e-03    1.0120000000e+05
    1.5997939045e-03    1.0120000000e+05
    1.6097226180e-03    1.0120000000e+05
    1.6197257210e-03    1.0120000000e+05
    1.6298042610e-03    1.0120000000e+05
    1.6399597516e-03    1.0120000000e+05
    1.6498998739e-03    1.0120000000e+05
    1.6599154333e-03    1.0120000000e+05
    1.6697088722e-03    1.0120000000e+05
    1.6798755387e-03    1.0120000000e+05
    1.6898186877e-03    1.0120000000e+05
    1.6998372739e-03    1.0120000000e+05
    1.7099324614e-03    1.0120000000e+05
    1.7197965644e-03    1.0120000000e+05
    1.7297354061e-03    1.0120000000e+05
    1.7397500342e-03    1.0120000000e+05
    1.7498420784e-03    1.0120000000e+05
    1.7596938414e-03    1.0120000000e+05
    1.7699421151e-03    1.0120000000e+05
    1.7799477791e-03    1.0120000000e+05
    1.7897048965e-03    1.0120000000e+05
    1.7998653930e-03    1.0120000000e+05
    1.8097745487e-03    1.0120000000e+05
    1.8197608879e-03    1.0120000000e+05
    1.8298253417e-03    1.0120000000e+05
    1.8399697728e-03    1.0120000000e+05
    1.8498530844e-03    1.0120000000e+05
    1.8598136958e-03    1.0120000000e+05
    1.8698530039e-03    1.0120000000e+05
    1.8799726386e-03    1.0120000000e+05
    1.8898209091e-03    1.0120000000e+05
    1.8997467123e-03    1.0120000000e+05
    1.9097515615e-03    1.0120000000e+05
    1.9198373193e-03    1.0120000000e+05
    1.9296404207e-03    1.0120000000e+05
    1.9398888107e-03    1.0120000000e+05
    1.9498523325e-03    1.0120000000e+05
    1.9598966464e-03    1.0120000000e+05
    1.9696471281e-03    1.0120000000e+05
    1.9798551220e-03    1.0120000000e+05
    1.9897664897e-03    1.0120000000e+05
    1.9997591153e-03    1.0120000000e+05
    2.0098346286e-03    1.0120000000e+05
    2.0199946593e-03    1.0120000000e+05
    2.0298454911e-03    1.0120000000e+05
    2.0397778135e-03    1.0120000000e+05
    2.0497934893e-03    1.0120000000e+05
    2.0598941483e-03    1.0120000000e+05
    2.0696723368e-03    1.0120000000e+05
    2.0799450576e-03    1.0120000000e+05
    2.0898918156e-03    1.0120000000e+05
    2.0999240223e-03    1.0120000000e+05
    2.1096197888e-03    1.0120000000e+05
    2.1198245231e-03    1.0120000000e+05
    2.1296893246e-03    1.0120000000e+05
    2.1396281663e-03    1.0120000000e+05
    2.1496308036e-03    1.0120000000e+05
    2.1596834995e-03    1.0120000000e+05
    2.1697748452e-03    1.0120000000e+05
    2.1799060050e-03    1.0120000000e+05
    2.1896173712e-03    1.0120000000e+05
    2.1998109296e-03    1.0120000000e+05
    2.2099902853e-03    1.0120000000e+05
    2.2197475191e-03    1.0120000000e+05
    2.2299799602e-03    1.0120000000e+05
    2.2397420835e-03    1.0120000000e+05
    2.2499719635e-03    1.0120000000e+05
    2.2597329225e-03    1.0120000000e+05
    2.2699364927e-03    1.0120000000e+05
    2.2797104903e-03    1.0120000000e+05
    2.2899131291e-03    1.0120000000e+05
    2.2996766493e-03    1.0120000000e+05
    2.3098606616e-03    1.0120000000e+05
    2.3196097463e-03    1.0120000000e+05
    2.3297881708e-03    1.0120000000e+05
    2.3399612401e-03    1.0120000000e+05
    2.3497166112e-03    1.0120000000e+05
    2.3599104024e-03    1.0120000000e+05
    2.3696818389e-03    1.0120000000e+05
    2.3798656184e-03    1.0120000000e+05
    2.3896077182e-03    1.0120000000e+05
    2.3998287506e-03    1.0120000000e+05
    2.4099920411e-03    1.0120000000e+05
    2.4197821040e-03    1.0120000000e+05
    2.4299889337e-03    1.0120000000e+05
    2.4398015812e-03    1.0120000000e+05
    2.4496442638e-03    1.0120000000e+05
    2.4599463213e-03    1.0120000000e+05
    2.4697927292e-03    1.0120000000e+05
    2.4796572980e-03    1.0120000000e+05
    2.4895404931e-03    1.0120000000e+05
    2.4999226443e-03    1.0120000000e+05
    2.5098437909e-03    1.0120000000e+05
    2.5197761133e-03    1.0120000000e+05
    2.5297089014e-03    1.0120000000e+05
    2.5396295823e-03    1.0120000000e+05
    2.5499993935e-03    1.0120000000e+05
    2.5599130895e-03    1.0120000000e+05
    2.5697983801e-03    1.0120000000e+05
    2.5796596892e-03    1.0120000000e+05
    2.5899475440e-03    1.0120000000e+05
    2.5997429620e-03    1.0120000000e+05
    2.6099490933e-03    1.0120000000e+05
    2.6196578983e-03    1.0120000000e+05
    2.6297410950e-03    1.0120000000e+05
    2.6397521142e-03    1.0120000000e+05
    2.6496911887e-03    1.0120000000e+05
    2.6599878911e-03    1.0120000000e+05
    2.6697849389e-03    1.0120000000e+05
    2.6799349580e-03    1.0120000000e+05
    2.6895932388e-03    1.0120000000e+05
    2.6996005327e-03    1.0120000000e+05
    2.7099493891e-03    1.0120000000e+05
    2.7198125608e-03    1.0120000000e+05
    2.7296061162e-03    1.0120000000e+05
    2.7397349477e-03    1.0120000000e+05
    2.7497902047e-03    1.0120000000e+05
    2.7597732842e-03    1.0120000000e+05
    2.7696848847e-03    1.0120000000e+05
    2.7799177915e-03    1.0120000000e+05
    2.7896859683e-03    1.0120000000e+05
    2.7997717261e-03    1.0120000000e+05
    2.8097834438e-03    1.0120000000e+05
    2.8197225183e-03    1.0120000000e+05
    2.8299672995e-03    1.0120000000e+05
    2.8397599235e-03    1.0120000000e+05
    2.8498545289e-03    1.0120000000e+05
    2.8598736972e-03    1.0120000000e+05
    2.8698183596e-03    1.0120000000e+05
    2.8796892148e-03    1.0120000000e+05
    2.8898480814e-03    1.0120000000e+05
    2.8999291826e-03    1.0120000000e+05
    2.9099329840e-03    1.0120000000e+05
    2.9198604170e-03    1.0120000000e+05
    2.9297119472e-03    1.0120000000e+05
    2.9398361221e-03    1.0120000000e+05
    2.9498799704e-03    1.0120000000e+05
    2.9598444235e-03    1.0120000000e+05
    2.9697304126e-03    1.0120000000e+05
    2.9798746109e-03    1.0120000000e+05
    2.9899356887e-03    1.0120000000e+05
    2.9999145772e-03    1.0120000000e+05
    3.0098108109e-03    1.0120000000e+05
    3.0199517496e-03    1.0120000000e+05
    3.0296829063e-03    1.0120000000e+05
    3.0399740208e-03    1.0120000000e+05
    3.0498565175e-03    1.0120000000e+05
    3.0599683523e-03    1.0120000000e+05
    3.0699900817e-03    1.0120000000e+05
    3.0799214728e-03    1.0120000000e+05
    3.0897632241e-03    1.0120000000e+05
    3.0998189468e-03    1.0120000000e+05
    3.1097801402e-03    1.0120000000e+05
    3.1199441291e-03    1.0120000000e+05
    3.1297134701e-03    1.0120000000e+05
    3.1399719883e-03    1.0120000000e+05
    3.1498360913e-03    1.0120000000e+05
    3.1598864589e-03    1.0120000000e+05
    3.1698306557e-03    1.0120000000e+05
    3.1799490098e-03    1.0120000000e+05
    3.1899553724e-03    1.0120000000e+05
    3.1998495106e-03    1.0120000000e+05
    3.2099015079e-03    1.0120000000e+05
    3.2198345289e-03    1.0120000000e+05
    3.2299119048e-03    1.0120000000e+05
    3.2398623880e-03    1.0120000000e+05
    3.2499430235e-03    1.0120000000e+05
    3.2598886173e-03    1.0120000000e+05
    3.2699482981e-03    1.0120000000e+05
    3.2798643224e-03    1.0120000000e+05
    3.2898776699e-03    1.0120000000e+05
    3.2999755349e-03    1.0120000000e+05
    3.3099097200e-03    1.0120000000e+05
    3.3199090976e-03    1.0120000000e+05
    3.3299587667e-03    1.0120000000e+05
    3.3398207743e-03    1.0120000000e+05
    3.3499270212e-03    1.0120000000e+05
    3.3598199952e-03    1.0120000000e+05
    3.3699108753e-03    1.0120000000e+05
    3.3799603116e-03    1.0120000000e+05
    3.3899447881e-03    1.0120000000e+05
    3.3998377621e-03    1.0120000000e+05
    3.4099796321e-03    1.0120000000e+05
    3.4199401271e-03    1.0120000000e+05
    3.4298470709e-03    1.0120000000e+05
    3.4399486613e-03    1.0120000000e+05
    3.4499431495e-03    1.0120000000e+05
    3.4599476494e-03    1.0120000000e+05
    3.4698951058e-03    1.0120000000e+05
    3.4799408168e-03    1.0120000000e+05
    3.4899013117e-03    1.0120000000e+05
    3.4998550545e-03    1.0120000000e+05
    3.5099000670e-03    1.0120000000e+05
    3.5199911799e-03    1.0120000000e+05
    3.5299742594e-03    1.0120000000e+05
    3.5398721229e-03    1.0120000000e+05
    3.5498349462e-03    1.0120000000e+05
    3.5599342082e-03    1.0120000000e+05
    3.5699787550e-03    1.0120000000e+05
    3.5798912868e-03    1.0120000000e+05
    3.5899162758e-03    1.0120000000e+05
    3.5998532549e-03    1.0120000000e+05
    3.6099066492e-03    1.0120000000e+05
    3.6199539900e-03    1.0120000000e+05
    3.6298653577e-03    1.0120000000e+05
    3.6399108358e-03    1.0120000000e+05
    3.6498410627e-03    1.0120000000e+05
    3.6598821171e-03    1.0120000000e+05
    3.6699827760e-03    1.0120000000e+05
    3.6799910013e-03    1.0120000000e+05
    3.6898667458e-03    1.0120000000e+05
    3.6998211872e-03    1.0120000000e+05
    3.7098368630e-03    1.0120000000e+05
    3.7199177314e-03    1.0120000000e+05
    3.7298598327e-03    1.0120000000e+05
    3.7398522254e-03    1.0120000000e+05
    3.7499191239e-03    1.0120000000e+05
    3.7598111667e-03    1.0120000000e+05
    3.7699895911e-03    1.0120000000e+05
    3.7799873389e-03    1.0120000000e+05
    3.7898570299e-03    1.0120000000e+05
    3.7999600172e-03    1.0120000000e+05
    3.8099018857e-03    1.0120000000e+05
    3.8198907860e-03    1.0120000000e+05
    3.8299178705e-03    1.0120000000e+05
    3.8397957105e-03    1.0120000000e+05
    3.8498956710e-03    1.0120000000e+05
    3.8598482497e-03    1.0120000000e+05
    3.8698296994e-03    1.0120000000e+05
    3.8798497990e-03    1.0120000000e+05
    3.8899120409e-03    1.0120000000e+05
    3.8999984972e-03    1.0120000000e+05
    3.9099380374e-03    1.0120000000e+05
    3.9198598824e-03    1.0120000000e+05
    3.9298632182e-03    1.0120000000e+05
    3.9398814552e-03    1.0120000000e+05
    3.9499136619e-03    1.0120000000e+05
    3.9598084986e-03    1.0120000000e+05
    3.9698905312e-03    1.0120000000e+05
    3.9798473008e-03    1.0120000000e+05
    3.9897901006e-03    1.0120000000e+05
    3.9999899454e-03    1.0120000000e+05
    4.0098195896e-03    1.0120000000e+05
    4.0198164061e-03    1.0120000000e+05
    4.0299277753e-03    1.0120000000e+05
    4.0397858247e-03    1.0120000000e+05
    4.0498934686e-03    1.0120000000e+05
    4.0598576888e-03    1.0120000000e+05
    4.0697823279e-03    1.0120000000e+05
    4.0797721595e-03    1.0120000000e+05
    4.0897899307e-03    1.0120000000e+05
    4.0998086333e-03    1.0120000000e+05
    4.1098920628e-03    1.0120000000e+05
    4.1199699044e-03    1.0120000000e+05
    4.1298586875e-03    1.0120000000e+05
    4.1397800669e-03    1.0120000000e+05
    4.1499473155e-03    1.0120000000e+05
    4.1599138640e-03    1.0120000000e+05
    4.1699032299e-03    1.0120000000e+05
    4.1799079627e-03    1.0120000000e+05
    4.1899401695e-03    1.0120000000e+05
    4.1999928653e-03    1.0120000000e+05
    4.2098253034e-03    1.0120000000e+05
    4.2199157178e-03    1.0120000000e+05
    4.2297840118e-03    1.0120000000e+05
    4.2399144731e-03    1.0120000000e+05
    4.2498148978e-03    1.0120000000e+05
    4.2599714361e-03    1.0120000000e+05
    4.2699049227e-03    1.0120000000e+05
    4.2798495851e-03    1.0120000000e+05
    4.2898040265e-03    1.0120000000e+05
    4.2997719720e-03    1.0120000000e+05
    4.3099913746e-03    1.0120000000e+05
    4.3199756183e-03    1.0120000000e+05
    4.3299677782e-03    1.0120000000e+05
    4.3399655260e-03    1.0120000000e+05
    4.3499660678e-03    1.0120000000e+05
    4.3599694036e-03    1.0120000000e+05
    4.3699727394e-03    1.0120000000e+05
    4.3799770065e-03    1.0120000000e+05
    4.3899812736e-03    1.0120000000e+05
    4.3999860063e-03    1.0120000000e+05
    4.4099898078e-03    1.0120000000e+05
    4.4199940749e-03    1.0120000000e+05
    4.4299978763e-03    1.0120000000e+05
    4.4397572055e-03    1.0120000000e+05
    4.4497600757e-03    1.0120000000e+05
    4.4597624801e-03    1.0120000000e+05
    4.4697639532e-03    1.0120000000e+05
    4.4797649607e-03    1.0120000000e+05
    4.4897645712e-03    1.0120000000e+05
    4.4997632504e-03    1.0120000000e+05
    4.5097609982e-03    1.0120000000e+05
    4.5197559521e-03    1.0120000000e+05
    4.5299949124e-03    1.0120000000e+05
    4.5399898663e-03    1.0120000000e+05
    4.5499843545e-03    1.0120000000e+05
    4.5599830337e-03    1.0120000000e+05
    4.5699859038e-03    1.0120000000e+05
    4.5799948275e-03    1.0120000000e+05
    4.5897634700e-03    1.0120000000e+05
    4.5997854322e-03    1.0120000000e+05
    4.6098143794e-03    1.0120000000e+05
    4.6198521741e-03    1.0120000000e+05
    4.6298950911e-03    1.0120000000e+05
    4.6399496496e-03    1.0120000000e+05
    4.6497657895e-03    1.0120000000e+05
    4.6598338522e-03    1.0120000000e+05
    4.6699112281e-03    1.0120000000e+05
    4.6799983829e-03    1.0120000000e+05
    4.6898461878e-03    1.0120000000e+05
    4.6999463812e-03    1.0120000000e+05
    4.7098118812e-03    1.0120000000e+05
    4.7199302353e-03    1.0120000000e+05
    4.7298087738e-03    1.0120000000e+05
    4.7399410978e-03    1.0120000000e+05
    4.7498396598e-03    1.0120000000e+05
    4.7599864192e-03    1.0120000000e+05
    4.7698980197e-03    1.0120000000e+05
    4.7798138112e-03    1.0120000000e+05
    4.7899913043e-03    1.0120000000e+05
    4.7999182716e-03    1.0120000000e+05
    4.8098601401e-03    1.0120000000e+05
    4.8198061995e-03    1.0120000000e+05
    4.8297639005e-03    1.0120000000e+05
    4.8399651423e-03    1.0120000000e+05
    4.8499382101e-03    1.0120000000e+05
    4.8599098809e-03    1.0120000000e+05
    4.8698941246e-03    1.0120000000e+05
    4.8798723146e-03    1.0120000000e+05
    4.8898737878e-03    1.0120000000e+05
    4.8998706043e-03    1.0120000000e+05
    4.9098818563e-03    1.0120000000e+05
    4.9198926426e-03    1.0120000000e+05
    4.9299192615e-03    1.0120000000e+05
    4.9399440177e-03    1.0120000000e+05
    4.9499790184e-03    1.0120000000e+05
    4.9597681500e-03    1.0120000000e+05
    4.9698143266e-03    1.0120000000e+05
    4.9798674881e-03    1.0120000000e+05
    4.9899308942e-03    1.0120000000e+05
    4.9997479655e-03    1.0120000000e+05
    5.0098230131e-03    1.0120000000e+05
    5.0199008547e-03    1.0120000000e+05
    5.0299935974e-03    1.0120000000e+05
    5.0398348831e-03    1.0120000000e+05
    5.0499327481e-03    1.0120000000e+05
    5.0597856753e-03    1.0120000000e+05
    5.0698993728e-03    1.0120000000e+05
    5.0797676668e-03    1.0120000000e+05
    5.0898878835e-03    1.0120000000e+05
    5.0997659564e-03    1.0120000000e+05
    5.1099024713e-03    1.0120000000e+05
    5.1197968423e-03    1.0120000000e+05
    5.1299473271e-03    1.0120000000e+05
    5.1398477517e-03    1.0120000000e+05
    5.1497542299e-03    1.0120000000e+05
    5.1599210128e-03    1.0120000000e+05
    5.1698395982e-03    1.0120000000e+05
    5.1797637716e-03    1.0120000000e+05
    5.1899440587e-03    1.0120000000e+05
    5.1998803392e-03    1.0120000000e+05
    5.2098194137e-03    1.0120000000e+05
    5.2197659388e-03    1.0120000000e+05
    5.2299695089e-03    1.0120000000e+05
    5.2399239503e-03    1.0120000000e+05
    5.2498839796e-03    1.0120000000e+05
    5.2598491311e-03    1.0120000000e+05
    5.2698184736e-03    1.0120000000e+05
    5.2797929384e-03    1.0120000000e+05
    5.2897701971e-03    1.0120000000e+05
    5.2997563034e-03    1.0120000000e+05
    5.3099989891e-03    1.0120000000e+05
    5.3199920803e-03    1.0120000000e+05
    5.3299870342e-03    1.0120000000e+05
    5.3399903700e-03    1.0120000000e+05
    5.3497455083e-03    1.0120000000e+05
    5.3597604856e-03    1.0120000000e+05
    5.3697717376e-03    1.0120000000e+05
    5.3797853179e-03    1.0120000000e+05
    5.3898054175e-03    1.0120000000e+05
    5.3998436779e-03    1.0120000000e+05
    5.4098903202e-03    1.0120000000e+05
    5.4199355654e-03    1.0120000000e+05
    5.4299775511e-03    1.0120000000e+05
    5.4397564381e-03    1.0120000000e+05
    5.4497970268e-03    1.0120000000e+05
    5.4598427378e-03    1.0120000000e+05
    5.4698986933e-03    1.0120000000e+05
    5.4799555801e-03    1.0120000000e+05
    5.4897516966e-03    1.0120000000e+05
    5.4998029955e-03    1.0120000000e+05
    5.5098538287e-03    1.0120000000e+05
    5.5199032649e-03    1.0120000000e+05
    5.5299527012e-03    1.0120000000e+05
    5.5397469550e-03    1.0120000000e+05
    5.5498043075e-03    1.0120000000e+05
    5.5598663166e-03    1.0120000000e+05
    5.5699273944e-03    1.0120000000e+05
    5.5799875408e-03    1.0120000000e+05
    5.5897878483e-03    1.0120000000e+05
    5.5998456664e-03    1.0120000000e+05
    5.6099025533e-03    1.0120000000e+05
    5.6199594401e-03    1.0120000000e+05
    5.6297588162e-03    1.0120000000e+05
    5.6398166344e-03    1.0120000000e+05
    5.6498739868e-03    1.0120000000e+05
    5.6599313393e-03    1.0120000000e+05
    5.6699882261e-03    1.0120000000e+05
    5.6797871366e-03    1.0120000000e+05
    5.6898435578e-03    1.0120000000e+05
    5.6998995133e-03    1.0120000000e+05
    5.7099550031e-03    1.0120000000e+05
    5.7197525166e-03    1.0120000000e+05
    5.7298075408e-03    1.0120000000e+05
    5.7398620993e-03    1.0120000000e+05
    5.7499161921e-03    1.0120000000e+05
    5.7599702850e-03    1.0120000000e+05
    5.7697659358e-03    1.0120000000e+05
    5.7798190974e-03    1.0120000000e+05
    5.7898722589e-03    1.0120000000e+05
    5.7999263518e-03    1.0120000000e+05
    5.8099799789e-03    1.0120000000e+05
    5.8197779581e-03    1.0120000000e+05
    5.8298348449e-03    1.0120000000e+05
    5.8398903348e-03    1.0120000000e+05
    5.8499448933e-03    1.0120000000e+05
    5.8599980548e-03    1.0120000000e+05
    5.8697923087e-03    1.0120000000e+05
    5.8798440732e-03    1.0120000000e+05
    5.8898949064e-03    1.0120000000e+05
    5.8999494649e-03    1.0120000000e+05
    5.9097507037e-03    1.0120000000e+05
    5.9198099189e-03    1.0120000000e+05
    5.9298682027e-03    1.0120000000e+05
    5.9399260208e-03    1.0120000000e+05
    5.9499824420e-03    1.0120000000e+05
    5.9597808868e-03    1.0120000000e+05
    5.9698363766e-03    1.0120000000e+05
    5.9798923321e-03    1.0120000000e+05
    5.9899524786e-03    1.0120000000e+05
    5.9997560456e-03    1.0120000000e+05
    6.0098157264e-03    1.0120000000e+05
    6.0198744759e-03    1.0120000000e+05
    6.0299322940e-03    1.0120000000e+05
    6.0399910435e-03    1.0120000000e+05
    6.0497969389e-03    1.0120000000e+05
    6.0598617420e-03    1.0120000000e+05
    6.0699251480e-03    1.0120000000e+05
    6.0799880885e-03    1.0120000000e+05
    6.0897921212e-03    1.0120000000e+05
    6.0998559929e-03    1.0120000000e+05
    6.1099240556e-03    1.0120000000e+05
    6.1199907213e-03    1.0120000000e+05
    6.1297984794e-03    1.0120000000e+05
    6.1398632824e-03    1.0120000000e+05
    6.1499294825e-03    1.0120000000e+05
    6.1597418971e-03    1.0120000000e+05
    6.1698113568e-03    1.0120000000e+05
    6.1798798852e-03    1.0120000000e+05
    6.1899479479e-03    1.0120000000e+05
    6.1997603625e-03    1.0120000000e+05
    6.2098321505e-03    1.0120000000e+05
    6.2199034728e-03    1.0120000000e+05
    6.2299738638e-03    1.0120000000e+05
    6.2397862785e-03    1.0120000000e+05
    6.2498603947e-03    1.0120000000e+05
    6.2599331141e-03    1.0120000000e+05
    6.2697473913e-03    1.0120000000e+05
    6.2798196450e-03    1.0120000000e+05
    6.2898942269e-03    1.0120000000e+05
    6.2999688089e-03    1.0120000000e+05
    6.3097844832e-03    1.0120000000e+05
    6.3198581338e-03    1.0120000000e+05
    6.3299336471e-03    1.0120000000e+05
    6.3397502527e-03    1.0120000000e+05
    6.3498248346e-03    1.0120000000e+05
    6.3598994166e-03    1.0120000000e+05
    6.3699749298e-03    1.0120000000e+05
    6.3797915354e-03    1.0120000000e+05
    6.3898661174e-03    1.0120000000e+05
    6.3999411650e-03    1.0120000000e+05
    6.4097577706e-03    1.0120000000e+05
    6.4198323525e-03    1.0120000000e+05
    6.4299069345e-03    1.0120000000e+05
    6.4399810508e-03    1.0120000000e+05
    6.4497967251e-03    1.0120000000e+05
    6.4598703757e-03    1.0120000000e+05
    6.4699440263e-03    1.0120000000e+05
    6.4797597006e-03    1.0120000000e+05
    6.4898328856e-03    1.0120000000e+05
    6.4999060705e-03    1.0120000000e+05
    6.5099787898e-03    1.0120000000e+05
    6.5197926015e-03    1.0120000000e+05
    6.5298643894e-03    1.0120000000e+05
    6.5399361774e-03    1.0120000000e+05
    6.5497513860e-03    1.0120000000e+05
    6.5598264337e-03    1.0120000000e+05
    6.5699019469e-03    1.0120000000e+05
    6.5799765289e-03    1.0120000000e+05
    6.5897917375e-03    1.0120000000e+05
    6.5998653881e-03    1.0120000000e+05
    6.6099385731e-03    1.0120000000e+05
    6.6197533160e-03    1.0120000000e+05
    6.6298265010e-03    1.0120000000e+05
    6.6398992203e-03    1.0120000000e+05
    6.6499714740e-03    1.0120000000e+05
    6.6597852856e-03    1.0120000000e+05
    6.6698570736e-03    1.0120000000e+05
    6.6799288616e-03    1.0120000000e+05
    6.6897422075e-03    1.0120000000e+05
    6.6998139955e-03    1.0120000000e+05
    6.7098862492e-03    1.0120000000e+05
    6.7199603654e-03    1.0120000000e+05
    6.7297769710e-03    1.0120000000e+05
    6.7398538813e-03    1.0120000000e+05
    6.7499321885e-03    1.0120000000e+05
    6.7597539164e-03    1.0120000000e+05
    6.7698373459e-03    1.0120000000e+05
    6.7799226381e-03    1.0120000000e+05
    6.7897518165e-03    1.0120000000e+05
    6.7998426966e-03    1.0120000000e+05
    6.8099414930e-03    1.0120000000e+05
    6.8197958171e-03    1.0120000000e+05
    6.8299169652e-03    1.0120000000e+05
    6.8397838622e-03    1.0120000000e+05
    6.8499133922e-03    1.0120000000e+05
    6.8597835489e-03    1.0120000000e+05
    6.8699121475e-03    1.0120000000e+05
    6.8797809072e-03    1.0120000000e+05
    6.8899141625e-03    1.0120000000e+05
    6.8997931667e-03    1.0120000000e+05
    6.9099348038e-03    1.0120000000e+05
    6.9198184647e-03    1.0120000000e+05
    6.9299647585e-03    1.0120000000e+05
    6.9398502819e-03    1.0120000000e+05
    6.9497413933e-03    1.0120000000e+05
    6.9598974660e-03    1.0120000000e+05
    6.9697988220e-03    1.0120000000e+05
    6.9799628109e-03    1.0120000000e+05
    6.9898720831e-03    1.0120000000e+05
    6.9997906685e-03    1.0120000000e+05
    7.0099728182e-03    1.0120000000e+05
    7.0198960602e-03    1.0120000000e+05
    7.0298290811e-03    1.0120000000e+05
    7.0397704840e-03    1.0120000000e+05
    7.0499852300e-03    1.0120000000e+05
    7.0599368773e-03    1.0120000000e+05
    7.0698945783e-03    1.0120000000e+05
    7.0798615925e-03    1.0120000000e+05
    7.0898393169e-03    1.0120000000e+05
    7.0998244919e-03    1.0120000000e+05
    7.1098105982e-03    1.0120000000e+05
    7.1197994985e-03    1.0120000000e+05
    7.1298014373e-03    1.0120000000e+05
    7.1398126893e-03    1.0120000000e+05
    7.1498304605e-03    1.0120000000e+05
    7.1598435752e-03    1.0120000000e+05
    7.1698641405e-03    1.0120000000e+05
    7.1798986755e-03    1.0120000000e+05
    7.1899429895e-03    1.0120000000e+05
    7.1999896318e-03    1.0120000000e+05
    7.2097699158e-03    1.0120000000e+05
    7.2198174894e-03    1.0120000000e+05
    7.2298841551e-03    1.0120000000e+05
    7.2399592027e-03    1.0120000000e+05
    7.2497697547e-03    1.0120000000e+05
    7.2598438710e-03    1.0120000000e+05
    7.2699235752e-03    1.0120000000e+05
    7.2797541507e-03    1.0120000000e+05
    7.2898557410e-03    1.0120000000e+05
    7.2999554686e-03    1.0120000000e+05
    7.3097939603e-03    1.0120000000e+05
    7.3199030012e-03    1.0120000000e+05
    7.3297610506e-03    1.0120000000e+05
    7.3398877867e-03    1.0120000000e+05
    7.3497467674e-03    1.0120000000e+05
    7.3598832823e-03    1.0120000000e+05
    7.3697553016e-03    1.0120000000e+05
    7.3799067177e-03    1.0120000000e+05
    7.3897927068e-03    1.0120000000e+05
    7.3999441229e-03    1.0120000000e+05
    7.4098384939e-03    1.0120000000e+05
    7.4197449721e-03    1.0120000000e+05
    7.4299233966e-03    1.0120000000e+05
    7.4398312718e-03    1.0120000000e+05
    7.4497358873e-03    1.0120000000e+05
    7.4599264190e-03    1.0120000000e+05
    7.4698603712e-03    1.0120000000e+05
    7.4797966518e-03    1.0120000000e+05
    7.4899969622e-03    1.0120000000e+05
    7.4999243952e-03    1.0120000000e+05
    7.5098625384e-03    1.0120000000e+05
    7.5198193081e-03    1.0120000000e+05
    7.5297774747e-03    1.0120000000e+05
    7.5397342443e-03    1.0120000000e+05
    7.5499522500e-03    1.0120000000e+05
    7.5599048287e-03    1.0120000000e+05
    7.5698778965e-03    1.0120000000e+05
    7.5798593462e-03    1.0120000000e+05
    7.5898417272e-03    1.0120000000e+05
    7.5998199172e-03    1.0120000000e+05
    7.6098027639e-03    1.0120000000e+05
    7.6197893359e-03    1.0120000000e+05
    7.6297884807e-03    1.0120000000e+05
    7.6397955418e-03    1.0120000000e+05
    7.6497998089e-03    1.0120000000e+05
    7.6598050073e-03    1.0120000000e+05
    7.6698171906e-03    1.0120000000e+05
    7.6798326336e-03    1.0120000000e+05
    7.6898555271e-03    1.0120000000e+05
    7.6998909935e-03    1.0120000000e+05
    7.7099218033e-03    1.0120000000e+05
    7.7199521475e-03    1.0120000000e+05
    7.7299890108e-03    1.0120000000e+05
    7.7397623099e-03    1.0120000000e+05
    7.7498182654e-03    1.0120000000e+05
    7.7598779462e-03    1.0120000000e+05
    7.7699283138e-03    1.0120000000e+05
    7.7799833380e-03    1.0120000000e+05
    7.7897761948e-03    1.0120000000e+05
    7.7998484485e-03    1.0120000000e+05
    7.8099323437e-03    1.0120000000e+05
    7.8197447583e-03    1.0120000000e+05
    7.8298198059e-03    1.0120000000e+05
    7.8398920596e-03    1.0120000000e+05
    7.8499829397e-03    1.0120000000e+05
    7.8598093241e-03    1.0120000000e+05
    7.8699113801e-03    1.0120000000e+05
    7.8797414899e-03    1.0120000000e+05
    7.8898398206e-03    1.0120000000e+05
    7.8999372199e-03    1.0120000000e+05
    7.9097738490e-03    1.0120000000e+05
    7.9199010506e-03    1.0120000000e+05
    7.9297563061e-03    1.0120000000e+05
    7.9398853704e-03    1.0120000000e+05
    7.9497303814e-03    1.0120000000e+05
    7.9598575830e-03    1.0120000000e+05
    7.9699913040e-03    1.0120000000e+05
    7.9798642546e-03    1.0120000000e+05
    7.9897390679e-03    1.0120000000e+05
    7.9998914152e-03    1.0120000000e+05
    8.0097606406e-03    1.0120000000e+05
    8.0198999494e-03    1.0120000000e+05
    8.0297822133e-03    1.0120000000e+05
    8.0399569124e-03    1.0120000000e+05
    8.0498512834e-03    1.0120000000e+05
    8.0597437918e-03    1.0120000000e+05
    8.0699240789e-03    1.0120000000e+05
    8.0798231065e-03    1.0120000000e+05
    8.0899996683e-03    1.0120000000e+05
    8.0999117345e-03    1.0120000000e+05
    8.1098303199e-03    1.0120000000e+05
    8.1197489053e-03    1.0120000000e+05
    8.1299440935e-03    1.0120000000e+05
    8.1398738548e-03    1.0120000000e+05
    8.1497998908e-03    1.0120000000e+05
    8.1597296521e-03    1.0120000000e+05
    8.1699369475e-03    1.0120000000e+05
    8.1798788160e-03    1.0120000000e+05
    8.1898262724e-03    1.0120000000e+05
    8.1997774541e-03    1.0120000000e+05
    8.2097370178e-03    1.0120000000e+05
    8.2199722528e-03    1.0120000000e+05
    8.2299206406e-03    1.0120000000e+05
    8.2398643717e-03    1.0120000000e+05
    8.2498323172e-03    1.0120000000e+05
    8.2598058507e-03    1.0120000000e+05
    8.2697831094e-03    1.0120000000e+05
    8.2797631621e-03    1.0120000000e+05
    8.2897460088e-03    1.0120000000e+05
    8.2999970764e-03    1.0120000000e+05
    8.3099650219e-03    1.0120000000e+05
    8.3199497312e-03    1.0120000000e+05
    8.3299493417e-03    1.0120000000e+05
    8.3399452269e-03    1.0120000000e+05
    8.3499439061e-03    1.0120000000e+05
    8.3599472418e-03    1.0120000000e+05
    8.3699505776e-03    1.0120000000e+05
    8.3799511194e-03    1.0120000000e+05
    8.3899581805e-03    1.0120000000e+05
    8.3999782801e-03    1.0120000000e+05
    8.4099993110e-03    1.0120000000e+05
    8.4197381511e-03    1.0120000000e+05
    8.4297657013e-03    1.0120000000e+05
    8.4397988394e-03    1.0120000000e+05
    8.4498301148e-03    1.0120000000e+05
    8.4598641843e-03    1.0120000000e+05
    8.4699084982e-03    1.0120000000e+05
    8.4799584001e-03    1.0120000000e+05
    8.4899980575e-03    1.0120000000e+05
    8.4997694939e-03    1.0120000000e+05
    8.5098342970e-03    1.0120000000e+05
    8.5198935121e-03    1.0120000000e+05
    8.5299490020e-03    1.0120000000e+05
    8.5397409275e-03    1.0120000000e+05
    8.5498215631e-03    1.0120000000e+05
    8.5598947480e-03    1.0120000000e+05
    8.5699651390e-03    1.0120000000e+05
    8.5797691718e-03    1.0120000000e+05
    8.5898647085e-03    1.0120000000e+05
    8.5999509320e-03    1.0120000000e+05
    8.6097633466e-03    1.0120000000e+05
    8.6198709905e-03    1.0120000000e+05
    8.6299739778e-03    1.0120000000e+05
    8.6397938430e-03    1.0120000000e+05
    8.6499033496e-03    1.0120000000e+05
    8.6597455665e-03    1.0120000000e+05
    8.6698699743e-03    1.0120000000e+05
    8.6799897254e-03    1.0120000000e+05
    8.6898393929e-03    1.0120000000e+05
    8.6999768391e-03    1.0120000000e+05
    8.7098227814e-03    1.0120000000e+05
    8.7199555710e-03    1.0120000000e+05
    8.7298275903e-03    1.0120000000e+05
    8.7399864569e-03    1.0120000000e+05
    8.7498566136e-03    1.0120000000e+05
    8.7597277015e-03    1.0120000000e+05
    8.7698930874e-03    1.0120000000e+05
    8.7797716260e-03    1.0120000000e+05
    8.7899258360e-03    1.0120000000e+05
    8.7998174131e-03    1.0120000000e+05
    8.8097248226e-03    1.0120000000e+05
    8.8199088350e-03    1.0120000000e+05
    8.8298106566e-03    1.0120000000e+05
    8.8397217914e-03    1.0120000000e+05
    8.8499225676e-03    1.0120000000e+05
    8.8598253205e-03    1.0120000000e+05
    8.8697290048e-03    1.0120000000e+05
    8.8799428195e-03    1.0120000000e+05
    8.8898809627e-03    1.0120000000e+05
    8.8998172432e-03    1.0120000000e+05
    8.9097600430e-03    1.0120000000e+05
    8.9199934155e-03    1.0120000000e+05
    8.9299390092e-03    1.0120000000e+05
    8.9398743585e-03    1.0120000000e+05
    8.9498171583e-03    1.0120000000e+05
    8.9597813785e-03    1.0120000000e+05
    8.9697390795e-03    1.0120000000e+05
    8.9799864218e-03    1.0120000000e+05
    8.9899608865e-03    1.0120000000e+05
    8.9999400079e-03    1.0120000000e+05
    9.0099107474e-03    1.0120000000e+05
    9.0198786929e-03    1.0120000000e+05
    9.0298606083e-03    1.0120000000e+05
    9.0398499742e-03    1.0120000000e+05
    9.0498337522e-03    1.0120000000e+05
    9.0598221868e-03    1.0120000000e+05
    9.0698264539e-03    1.0120000000e+05
    9.0798260644e-03    1.0120000000e+05
    9.0898247436e-03    1.0120000000e+05
    9.0998345986e-03    1.0120000000e+05
    9.1098546982e-03    1.0120000000e+05
    9.1198729351e-03    1.0120000000e+05
    9.1298855841e-03    1.0120000000e+05
    9.1399094090e-03    1.0120000000e+05
    9.1499350965e-03    1.0120000000e+05
    9.1599542648e-03    1.0120000000e+05
    9.1699734330e-03    1.0120000000e+05
    9.1797215864e-03    1.0120000000e+05
    9.1897640377e-03    1.0120000000e+05
    9.1998018324e-03    1.0120000000e+05
    9.2098442838e-03    1.0120000000e+05
    9.2198969796e-03    1.0120000000e+05
    9.2299496755e-03    1.0120000000e+05
    9.2399986461e-03    1.0120000000e+05
    9.2497672886e-03    1.0120000000e+05
    9.2598237097e-03    1.0120000000e+05
    9.2698801309e-03    1.0120000000e+05
    9.2799356207e-03    1.0120000000e+05
    9.2899994925e-03    1.0120000000e+05
    9.2997839674e-03    1.0120000000e+05
    9.3098590150e-03    1.0120000000e+05
    9.3199303374e-03    1.0120000000e+05
    9.3297138810e-03    1.0120000000e+05
    9.3397879973e-03    1.0120000000e+05
    9.3498621136e-03    1.0120000000e+05
    9.3599446118e-03    1.0120000000e+05
    9.3697356060e-03    1.0120000000e+05
    9.3798264861e-03    1.0120000000e+05
    9.3899201602e-03    1.0120000000e+05
    9.3997213989e-03    1.0120000000e+05
    9.4098132104e-03    1.0120000000e+05
    9.4199059531e-03    1.0120000000e+05
    9.4299940392e-03    1.0120000000e+05
    9.4398055226e-03    1.0120000000e+05
    9.4499178231e-03    1.0120000000e+05
    9.4597432762e-03    1.0120000000e+05
    9.4698583707e-03    1.0120000000e+05
    9.4799697399e-03    1.0120000000e+05
    9.4897970557e-03    1.0120000000e+05
    9.4999177381e-03    1.0120000000e+05
    9.5097394660e-03    1.0120000000e+05
    9.5198592171e-03    1.0120000000e+05
    9.5299966633e-03    1.0120000000e+05
    9.5398481935e-03    1.0120000000e+05
    9.5499893650e-03    1.0120000000e+05
    9.5598371699e-03    1.0120000000e+05
    9.5699718222e-03    1.0120000000e+05
    9.5798159018e-03    1.0120000000e+05
    9.5899561420e-03    1.0120000000e+05
    9.5998179168e-03    1.0120000000e+05
    9.6099758521e-03    1.0120000000e+05
    9.6198460087e-03    1.0120000000e+05
    9.6297189593e-03    1.0120000000e+05
    9.6398824826e-03    1.0120000000e+05
    9.6497535706e-03    1.0120000000e+05
    9.6599133685e-03    1.0120000000e+05
    9.6697816625e-03    1.0120000000e+05
    9.6799395978e-03    1.0120000000e+05
    9.6898060292e-03    1.0120000000e+05
    9.6999621019e-03    1.0120000000e+05
    9.7098276019e-03    1.0120000000e+05
    9.7199827433e-03    1.0120000000e+05
    9.7298473120e-03    1.0120000000e+05
    9.7397118807e-03    1.0120000000e+05
    9.7498660907e-03    1.0120000000e+05
    9.7597306594e-03    1.0120000000e+05
    9.7698839381e-03    1.0120000000e+05
    9.7797475755e-03    1.0120000000e+05
    9.7899008542e-03    1.0120000000e+05
    9.7997644916e-03    1.0120000000e+05
    9.8099187016e-03    1.0120000000e+05
    9.8197814077e-03    1.0120000000e+05
    9.8299337551e-03    1.0120000000e+05
    9.8397955298e-03    1.0120000000e+05
    9.8499488086e-03    1.0120000000e+05
    9.8598105833e-03    1.0120000000e+05
    9.8699601367e-03    1.0120000000e+05
    9.8798256367e-03    1.0120000000e+05
    9.8899826407e-03    1.0120000000e+05
    9.8998527974e-03    1.0120000000e+05
    9.9097266793e-03    1.0120000000e+05
    9.9198911339e-03    1.0120000000e+05
    9.9297622219e-03    1.0120000000e+05
    9.9399192259e-03    1.0120000000e+05
    9.9497996271e-03    1.0120000000e+05
    9.9599789828e-03    1.0120000000e+05
    9.9698659033e-03    1.0120000000e+05
    9.9797602743e-03    1.0120000000e+05
    9.9899480119e-03    1.0120000000e+05
    9.9998554215e-03    1.0120000000e+05
    1.0009768419e-02    1.0120000000e+05
    1.0019981302e-02    1.0120000000e+05
    1.0029908270e-02    1.0120000000e+05
    1.0039835237e-02    1.0120000000e+05
    1.0049771518e-02    1.0120000000e+05
    1.0059995577e-02    1.0120000000e+05
    1.0069943964e-02    1.0120000000e+05
    1.0079903528e-02    1.0120000000e+05
    1.0089864023e-02    1.0120000000e+05
    1.0099831037e-02    1.0120000000e+05
    1.0109800845e-02    1.0120000000e+05
    1.0119794868e-02    1.0120000000e+05
    1.0129782371e-02    1.0120000000e+05
    1.0139773600e-02    1.0120000000e+05
    1.0149797425e-02    1.0120000000e+05
    1.0159828700e-02    1.0120000000e+05
    1.0169864632e-02    1.0120000000e+05
    1.0179899633e-02    1.0120000000e+05
    1.0189948604e-02    1.0120000000e+05
    1.0199707933e-02    1.0120000000e+05
    1.0209766217e-02    1.0120000000e+05
    1.0219837539e-02    1.0120000000e+05
    1.0229912587e-02    1.0120000000e+05
    1.0239723139e-02    1.0120000000e+05
    1.0249863379e-02    1.0120000000e+05
    1.0259738192e-02    1.0120000000e+05
    1.0269938037e-02    1.0120000000e+05
    1.0279851034e-02    1.0120000000e+05
    1.0289774276e-02    1.0120000000e+05
    1.0299699381e-02    1.0120000000e+05
    1.0309934616e-02    1.0120000000e+05
    1.0319873691e-02    1.0120000000e+05
    1.0329813696e-02    1.0120000000e+05
    1.0339756496e-02    1.0120000000e+05
    1.0349766351e-02    1.0120000000e+05
    1.0359901935e-02    1.0120000000e+05
    1.0369890369e-02    1.0120000000e+05
    1.0379749350e-02    1.0120000000e+05
    1.0389807634e-02    1.0120000000e+05
    1.0399742983e-02    1.0120000000e+05
    1.0409880430e-02    1.0120000000e+05
    1.0419872589e-02    1.0120000000e+05
    1.0429698974e-02    1.0120000000e+05
    1.0439700447e-02    1.0120000000e+05
    1.0449873284e-02    1.0120000000e+05
    1.0459844023e-02    1.0120000000e+05
    1.0469970293e-02    1.0120000000e+05
    1.0479868390e-02    1.0120000000e+05
    1.0489908047e-02    1.0120000000e+05
    1.0499695316e-02    1.0120000000e+05
    1.0509612970e-02    1.0120000000e+05
    1.0519659147e-02    1.0120000000e+05
    1.0529834777e-02    1.0120000000e+05
    1.0539724492e-02    1.0120000000e+05
    1.0549732484e-02    1.0120000000e+05
    1.0559859686e-02    1.0120000000e+05
    1.0569675826e-02    1.0120000000e+05
    1.0579599999e-02    1.0120000000e+05
    1.0589629412e-02    1.0120000000e+05
    1.0599764064e-02    1.0120000000e+05
    1.0609555990e-02    1.0120000000e+05
    1.0619894601e-02    1.0120000000e+05
    1.0629868135e-02    1.0120000000e+05
    1.0639902204e-02    1.0120000000e+05
    1.0649977252e-02    1.0120000000e+05
    1.0659621097e-02    1.0120000000e+05
    1.0669765994e-02    1.0120000000e+05
    1.0679936968e-02    1.0120000000e+05
    1.0689696297e-02    1.0120000000e+05
    1.0699956678e-02    1.0120000000e+05
    1.0709796101e-02    1.0120000000e+05
    1.0719685815e-02    1.0120000000e+05
    1.0729615577e-02    1.0120000000e+05
    1.0739577934e-02    1.0120000000e+05
    1.0749607347e-02    1.0120000000e+05
    1.0759672150e-02    1.0120000000e+05
    1.0769790970e-02    1.0120000000e+05
    1.0779947974e-02    1.0120000000e+05
    1.0789633729e-02    1.0120000000e+05
    1.0799911804e-02    1.0120000000e+05
    1.0809650645e-02    1.0120000000e+05
    1.0819518007e-02    1.0120000000e+05
    1.0829843581e-02    1.0120000000e+05
    1.0839772411e-02    1.0120000000e+05
    1.0849712417e-02    1.0120000000e+05
    1.0859679431e-02    1.0120000000e+05
    1.0869739577e-02    1.0120000000e+05
    1.0879785754e-02    1.0120000000e+05
    1.0889873840e-02    1.0120000000e+05
    1.0899482295e-02    1.0120000000e+05
    1.0909610428e-02    1.0120000000e+05
    1.0919804685e-02    1.0120000000e+05
    1.0929519311e-02    1.0120000000e+05
    1.0939775966e-02    1.0120000000e+05
    1.0949512944e-02    1.0120000000e+05
    1.0959837586e-02    1.0120000000e+05
    1.0969669558e-02    1.0120000000e+05
    1.0979548097e-02    1.0120000000e+05
    1.0989905335e-02    1.0120000000e+05
    1.0999822989e-02    1.0120000000e+05
    1.1009760201e-02    1.0120000000e+05
    1.1019804515e-02    1.0120000000e+05
    1.1029833928e-02    1.0120000000e+05
    1.1039897799e-02    1.0120000000e+05
    1.1049984023e-02    1.0120000000e+05
    1.1059563607e-02    1.0120000000e+05
    1.1069715954e-02    1.0120000000e+05
    1.1079808697e-02    1.0120000000e+05
    1.1089985259e-02    1.0120000000e+05
    1.1099651456e-02    1.0120000000e+05
    1.1109889485e-02    1.0120000000e+05
    1.1119608767e-02    1.0120000000e+05
    1.1129890569e-02    1.0120000000e+05
    1.1139670387e-02    1.0120000000e+05
    1.1149937287e-02    1.0120000000e+05
    1.1159788817e-02    1.0120000000e+05
    1.1169484816e-02    1.0120000000e+05
    1.1179647408e-02    1.0120000000e+05
    1.1189614423e-02    1.0120000000e+05
    1.1199853383e-02    1.0120000000e+05
    1.1209736578e-02    1.0120000000e+05
    1.1219728738e-02    1.0120000000e+05
    1.1229789816e-02    1.0120000000e+05
    1.1239880696e-02    1.0120000000e+05
    1.1249959469e-02    1.0120000000e+05
    1.1259987950e-02    1.0120000000e+05
    1.1269922368e-02    1.0120000000e+05
    1.1279718950e-02    1.0120000000e+05
    1.1289999820e-02    1.0120000000e+05
    1.1299966834e-02    1.0120000000e+05
    1.1309858412e-02    1.0120000000e+05
    1.1319809593e-02    1.0120000000e+05
    1.1329839006e-02    1.0120000000e+05
    1.1339853518e-02    1.0120000000e+05
    1.1349972337e-02    1.0120000000e+05
    1.1359947734e-02    1.0120000000e+05
    1.1369899847e-02    1.0120000000e+05
    1.1379987001e-02    1.0120000000e+05
    1.1389931664e-02    1.0120000000e+05
    1.1399979703e-02    1.0120000000e+05
    1.1409875005e-02    1.0120000000e+05
    1.1419871822e-02    1.0120000000e+05
    1.1429941282e-02    1.0120000000e+05
    1.1439970694e-02    1.0120000000e+05
    1.1449846439e-02    1.0120000000e+05
    1.1459951289e-02    1.0120000000e+05
    1.1469897814e-02    1.0120000000e+05
    1.1479836889e-02    1.0120000000e+05
    1.1489994824e-02    1.0120000000e+05
    1.1499932967e-02    1.0120000000e+05
    1.1509822682e-02    1.0120000000e+05
    1.1519839056e-02    1.0120000000e+05
    1.1529986747e-02    1.0120000000e+05
    1.1539994739e-02    1.0120000000e+05
    1.1549864896e-02    1.0120000000e+05
    1.1559792794e-02    1.0120000000e+05
    1.1569785886e-02    1.0120000000e+05
    1.1579831131e-02    1.0120000000e+05
    1.1589917354e-02    1.0120000000e+05
    1.1599823833e-02    1.0120000000e+05
    1.1609990150e-02    1.0120000000e+05
    1.1619971134e-02    1.0120000000e+05
    1.1629977264e-02    1.0120000000e+05
    1.1639771983e-02    1.0120000000e+05
    1.1649841443e-02    1.0120000000e+05
    1.1659927666e-02    1.0120000000e+05
    1.1669809930e-02    1.0120000000e+05
    1.1679944582e-02    1.0120000000e+05
    1.1689878069e-02    1.0120000000e+05
    1.1699808761e-02    1.0120000000e+05
    1.1709777638e-02    1.0120000000e+05
    1.1719767936e-02    1.0120000000e+05
    1.1729995720e-02    1.0120000000e+05
    1.1739786714e-02    1.0120000000e+05
    1.1749808677e-02    1.0120000000e+05
    1.1759866029e-02    1.0120000000e+05
    1.1769926175e-02    1.0120000000e+05
    1.1779778637e-02    1.0120000000e+05
    1.1789890938e-02    1.0120000000e+05
    1.1799999513e-02    1.0120000000e+05
    1.1809907854e-02    1.0120000000e+05
    1.1819815263e-02    1.0120000000e+05
    1.1829983443e-02    1.0120000000e+05
    1.1839931831e-02    1.0120000000e+05
    1.1849900708e-02    1.0120000000e+05
    1.1859874241e-02    1.0120000000e+05
    1.1869855225e-02    1.0120000000e+05
    1.1879875325e-02    1.0120000000e+05
    1.1889896356e-02    1.0120000000e+05
    1.1899922974e-02    1.0120000000e+05
    1.1909973808e-02    1.0120000000e+05
    1.1919793673e-02    1.0120000000e+05
    1.1929856613e-02    1.0120000000e+05
    1.1939941905e-02    1.0120000000e+05
    1.1949803680e-02    1.0120000000e+05
    1.1959915049e-02    1.0120000000e+05
    1.1969770305e-02    1.0120000000e+05
    1.1979916133e-02    1.0120000000e+05
    1.1989819817e-02    1.0120000000e+05
    1.1999969371e-02    1.0120000000e+05
    1.2009875849e-02    1.0120000000e+05
    1.2019816786e-02    1.0120000000e+05
    1.2029999867e-02    1.0120000000e+05
    1.2039936148e-02    1.0120000000e+05
    1.2049896643e-02    1.0120000000e+05
    1.2059872039e-02    1.0120000000e+05
    1.2069835328e-02    1.0120000000e+05
    1.2079815380e-02    1.0120000000e+05
    1.2089822441e-02    1.0120000000e+05
    1.2099821121e-02    1.0120000000e+05
    1.2109821662e-02    1.0120000000e+05
    1.2119847350e-02    1.0120000000e+05
    1.2129887938e-02    1.0120000000e+05
    1.2139916420e-02    1.0120000000e+05
    1.2149957940e-02    1.0120000000e+05
    1.2159761973e-02    1.0120000000e+05
    1.2169829570e-02    1.0120000000e+05
    1.2179896235e-02    1.0120000000e+05
    1.2189981528e-02    1.0120000000e+05
    1.2199817225e-02    1.0120000000e+05
    1.2209910899e-02    1.0120000000e+05
    1.2219755910e-02    1.0120000000e+05
    1.2229876593e-02    1.0120000000e+05
    1.2239741161e-02    1.0120000000e+05
    1.2249862775e-02    1.0120000000e+05
    1.2259740382e-02    1.0120000000e+05
    1.2269889936e-02    1.0120000000e+05
    1.2279780582e-02    1.0120000000e+05
    1.2289933860e-02    1.0120000000e+05
    1.2299839407e-02    1.0120000000e+05
    1.2309753336e-02    1.0120000000e+05
    1.2319931760e-02    1.0120000000e+05
    1.2329855934e-02    1.0120000000e+05
    1.2339786626e-02    1.0120000000e+05
    1.2349985540e-02    1.0120000000e+05
    1.2359927408e-02    1.0120000000e+05
    1.2369880453e-02    1.0120000000e+05
    1.2379836291e-02    1.0120000000e+05
    1.2389793061e-02    1.0120000000e+05
    1.2399757281e-02    1.0120000000e+05
    1.2409991585e-02    1.0120000000e+05
    1.2419969775e-02    1.0120000000e+05
    1.2429947965e-02    1.0120000000e+05
    1.2439930812e-02    1.0120000000e+05
    1.2449922971e-02    1.0120000000e+05
    1.2459920719e-02    1.0120000000e+05
    1.2469922192e-02    1.0120000000e+05
    1.2479925528e-02    1.0120000000e+05
    1.2489935383e-02    1.0120000000e+05
    1.2499949895e-02    1.0120000000e+05
    1.2509969063e-02    1.0120000000e+05
    1.2519990094e-02    1.0120000000e+05
    1.2529744767e-02    1.0120000000e+05
    1.2539770454e-02    1.0120000000e+05
    1.2549800798e-02    1.0120000000e+05
    1.2559838593e-02    1.0120000000e+05
    1.2569880113e-02    1.0120000000e+05
    1.2579925358e-02    1.0120000000e+05
    1.2589973398e-02    1.0120000000e+05
    1.2599756941e-02    1.0120000000e+05
    1.2609804049e-02    1.0120000000e+05
    1.2619850226e-02    1.0120000000e+05
    1.2629897334e-02    1.0120000000e+05
    1.2639942579e-02    1.0120000000e+05
    1.2649988756e-02    1.0120000000e+05
    1.2659772299e-02    1.0120000000e+05
    1.2669822201e-02    1.0120000000e+05
    1.2679873034e-02    1.0120000000e+05
    1.2689925730e-02    1.0120000000e+05
    1.2699979357e-02    1.0120000000e+05
    1.2709768489e-02    1.0120000000e+05
    1.2719823048e-02    1.0120000000e+05
    1.2729876675e-02    1.0120000000e+05
    1.2739931233e-02    1.0120000000e+05
    1.2749985792e-02    1.0120000000e+05
    1.2759775855e-02    1.0120000000e+05
    1.2769829482e-02    1.0120000000e+05
    1.2779884040e-02    1.0120000000e+05
    1.2789938599e-02    1.0120000000e+05
    1.2799994089e-02    1.0120000000e+05
    1.2809786014e-02    1.0120000000e+05
    1.2819842435e-02    1.0120000000e+05
    1.2829899788e-02    1.0120000000e+05
    1.2839958072e-02    1.0120000000e+05
    1.2849751860e-02    1.0120000000e+05
    1.2859811075e-02    1.0120000000e+05
    1.2869871221e-02    1.0120000000e+05
    1.2879931368e-02    1.0120000000e+05
    1.2889991514e-02    1.0120000000e+05
    1.2899788097e-02    1.0120000000e+05
    1.2909850106e-02    1.0120000000e+05
    1.2919912115e-02    1.0120000000e+05
    1.2929975055e-02    1.0120000000e+05
    1.2939773500e-02    1.0120000000e+05
    1.2949836440e-02    1.0120000000e+05
    1.2959899381e-02    1.0120000000e+05
    1.2969963253e-02    1.0120000000e+05
    1.2979760766e-02    1.0120000000e+05
    1.2989824638e-02    1.0120000000e+05
    1.2999887578e-02    1.0120000000e+05
    1.3009952381e-02    1.0120000000e+05
    1.3019754551e-02    1.0120000000e+05
    1.3029824942e-02    1.0120000000e+05
    1.3039900921e-02    1.0120000000e+05
    1.3049981557e-02    1.0120000000e+05
    1.3059795834e-02    1.0120000000e+05
    1.3069874607e-02    1.0120000000e+05
    1.3079951517e-02    1.0120000000e+05
    1.3089763001e-02    1.0120000000e+05
    1.3099838980e-02    1.0120000000e+05
    1.3109914027e-02    1.0120000000e+05
    1.3119990937e-02    1.0120000000e+05
    1.3129807077e-02    1.0120000000e+05
    1.3139889576e-02    1.0120000000e+05
    1.3149973005e-02    1.0120000000e+05
    1.3159790076e-02    1.0120000000e+05
    1.3169873506e-02    1.0120000000e+05
    1.3179956004e-02    1.0120000000e+05
    1.3189773075e-02    1.0120000000e+05
    1.3199856505e-02    1.0120000000e+05
    1.3209939934e-02    1.0120000000e+05
    1.3219757006e-02    1.0120000000e+05
    1.3229839504e-02    1.0120000000e+05
    1.3239922933e-02    1.0120000000e+05
    1.3249741867e-02    1.0120000000e+05
    1.3259826228e-02    1.0120000000e+05
    1.3269909658e-02    1.0120000000e+05
    1.3279993087e-02    1.0120000000e+05
    1.3289812021e-02    1.0120000000e+05
    1.3299895450e-02    1.0120000000e+05
    1.3309978880e-02    1.0120000000e+05
    1.3319797814e-02    1.0120000000e+05
    1.3329883106e-02    1.0120000000e+05
    1.3339967467e-02    1.0120000000e+05
    1.3349786401e-02    1.0120000000e+05
    1.3359870762e-02    1.0120000000e+05
    1.3369955122e-02    1.0120000000e+05
    1.3379774056e-02    1.0120000000e+05
    1.3389859349e-02    1.0120000000e+05
    1.3399944641e-02    1.0120000000e+05
    1.3409763575e-02    1.0120000000e+05
    1.3419848867e-02    1.0120000000e+05
    1.3429933228e-02    1.0120000000e+05
    1.3439753093e-02    1.0120000000e+05
    1.3449837454e-02    1.0120000000e+05
    1.3459922746e-02    1.0120000000e+05
    1.3469742611e-02    1.0120000000e+05
    1.3479827903e-02    1.0120000000e+05
    1.3489913195e-02    1.0120000000e+05
    1.3499998488e-02    1.0120000000e+05
    1.3509818353e-02    1.0120000000e+05
    1.3519904576e-02    1.0120000000e+05
    1.3529989868e-02    1.0120000000e+05
    1.3539809734e-02    1.0120000000e+05
    1.3549895957e-02    1.0120000000e+05
    1.3559981249e-02    1.0120000000e+05
    1.3569802046e-02    1.0120000000e+05
    1.3579887338e-02    1.0120000000e+05
    1.3589973561e-02    1.0120000000e+05
    1.3599793427e-02    1.0120000000e+05
    1.3609879650e-02    1.0120000000e+05
    1.3619965874e-02    1.0120000000e+05
    1.3629786670e-02    1.0120000000e+05
    1.3639872894e-02    1.0120000000e+05
    1.3649959117e-02    1.0120000000e+05
    1.3659779914e-02    1.0120000000e+05
    1.3669866137e-02    1.0120000000e+05
    1.3679952361e-02    1.0120000000e+05
    1.3689774089e-02    1.0120000000e+05
    1.3699860312e-02    1.0120000000e+05
    1.3709946536e-02    1.0120000000e+05
    1.3719768263e-02    1.0120000000e+05
    1.3729854487e-02    1.0120000000e+05
    1.3739941642e-02    1.0120000000e+05
    1.3749763370e-02    1.0120000000e+05
    1.3759849593e-02    1.0120000000e+05
    1.3769936748e-02    1.0120000000e+05
    1.3779758476e-02    1.0120000000e+05
    1.3789846562e-02    1.0120000000e+05
    1.3799933717e-02    1.0120000000e+05
    1.3809755445e-02    1.0120000000e+05
    1.3819843531e-02    1.0120000000e+05
    1.3829930685e-02    1.0120000000e+05
    1.3839753345e-02    1.0120000000e+05
    1.3849840499e-02    1.0120000000e+05
    1.3859928586e-02    1.0120000000e+05
    1.3869751245e-02    1.0120000000e+05
    1.3879839331e-02    1.0120000000e+05
    1.3889927417e-02    1.0120000000e+05
    1.3899750076e-02    1.0120000000e+05
    1.3909839094e-02    1.0120000000e+05
    1.3919927180e-02    1.0120000000e+05
    1.3929749839e-02    1.0120000000e+05
    1.3939839788e-02    1.0120000000e+05
    1.3949929737e-02    1.0120000000e+05
    1.3959754258e-02    1.0120000000e+05
    1.3969844207e-02    1.0120000000e+05
    1.3979934156e-02    1.0120000000e+05
    1.3989758678e-02    1.0120000000e+05
    1.3999848627e-02    1.0120000000e+05
    1.4009939507e-02    1.0120000000e+05
    1.4019764028e-02    1.0120000000e+05
    1.4029854909e-02    1.0120000000e+05
    1.4039945789e-02    1.0120000000e+05
    1.4049770311e-02    1.0120000000e+05
    1.4059861191e-02    1.0120000000e+05
    1.4069953002e-02    1.0120000000e+05
    1.4079778455e-02    1.0120000000e+05
    1.4089870267e-02    1.0120000000e+05
    1.4099961147e-02    1.0120000000e+05
    1.4109787531e-02    1.0120000000e+05
    1.4119879343e-02    1.0120000000e+05
    1.4129971154e-02    1.0120000000e+05
    1.4139797539e-02    1.0120000000e+05
    1.4149890281e-02    1.0120000000e+05
    1.4159983024e-02    1.0120000000e+05
    1.4169810340e-02    1.0120000000e+05
    1.4179903083e-02    1.0120000000e+05
    1.4189996757e-02    1.0120000000e+05
    1.4199825004e-02    1.0120000000e+05
    1.4209918678e-02    1.0120000000e+05
    1.4219746925e-02    1.0120000000e+05
    1.4229840599e-02    1.0120000000e+05
    1.4239934273e-02    1.0120000000e+05
    1.4249762520e-02    1.0120000000e+05
    1.4259857126e-02    1.0120000000e+05
    1.4269950800e-02    1.0120000000e+05
    1.4279779978e-02    1.0120000000e+05
    1.4289874583e-02    1.0120000000e+05
    1.4299970120e-02    1.0120000000e+05
    1.4309800230e-02    1.0120000000e+05
    1.4319894835e-02    1.0120000000e+05
    1.4329990372e-02    1.0120000000e+05
    1.4339820482e-02    1.0120000000e+05
    1.4349916019e-02    1.0120000000e+05
    1.4359746128e-02    1.0120000000e+05
    1.4369842596e-02    1.0120000000e+05
    1.4379939064e-02    1.0120000000e+05
    1.4389770105e-02    1.0120000000e+05
    1.4399866574e-02    1.0120000000e+05
    1.4409963042e-02    1.0120000000e+05
    1.4419795014e-02    1.0120000000e+05
    1.4429892413e-02    1.0120000000e+05
    1.4439989813e-02    1.0120000000e+05
    1.4449820854e-02    1.0120000000e+05
    1.4459919184e-02    1.0120000000e+05
    1.4469751157e-02    1.0120000000e+05
    1.4479849488e-02    1.0120000000e+05
    1.4489947818e-02    1.0120000000e+05
    1.4499780722e-02    1.0120000000e+05
    1.4509879053e-02    1.0120000000e+05
    1.4519978315e-02    1.0120000000e+05
    1.4529811218e-02    1.0120000000e+05
    1.4539909549e-02    1.0120000000e+05
    1.4549743384e-02    1.0120000000e+05
    1.4559843577e-02    1.0120000000e+05
    1.4569942839e-02    1.0120000000e+05
    1.4579777606e-02    1.0120000000e+05
    1.4589876868e-02    1.0120000000e+05
    1.4599977061e-02    1.0120000000e+05
    1.4609811828e-02    1.0120000000e+05
    1.4619912021e-02    1.0120000000e+05
    1.4629746787e-02    1.0120000000e+05
    1.4639847912e-02    1.0120000000e+05
    1.4649948105e-02    1.0120000000e+05
    1.4659783803e-02    1.0120000000e+05
    1.4669884928e-02    1.0120000000e+05
    1.4679986052e-02    1.0120000000e+05
    1.4689821750e-02    1.0120000000e+05
    1.4699923806e-02    1.0120000000e+05
    1.4709759504e-02    1.0120000000e+05
    1.4719861560e-02    1.0120000000e+05
    1.4729963616e-02    1.0120000000e+05
    1.4739800245e-02    1.0120000000e+05
    1.4749903232e-02    1.0120000000e+05
    1.4759739861e-02    1.0120000000e+05
    1.4769841917e-02    1.0120000000e+05
    1.4779944904e-02    1.0120000000e+05
    1.4789782465e-02    1.0120000000e+05
    1.4799885452e-02    1.0120000000e+05
    1.4809988439e-02    1.0120000000e+05
    1.4819825999e-02    1.0120000000e+05
    1.4829929918e-02    1.0120000000e+05
    1.4839767478e-02    1.0120000000e+05
    1.4849871397e-02    1.0120000000e+05
    1.4859975316e-02    1.0120000000e+05
    1.4869813807e-02    1.0120000000e+05
    1.4879917726e-02    1.0120000000e+05
    1.4889756218e-02    1.0120000000e+05
    1.4899861068e-02    1.0120000000e+05
    1.4909965917e-02    1.0120000000e+05
    1.4919804409e-02    1.0120000000e+05
    1.4929910190e-02    1.0120000000e+05
    1.4939748682e-02    1.0120000000e+05
    1.4949854463e-02    1.0120000000e+05
    1.4959959313e-02    1.0120000000e+05
    1.4969798736e-02    1.0120000000e+05
    1.4979904518e-02    1.0120000000e+05
    1.4989744872e-02    1.0120000000e+05
    1.4999850653e-02    1.0120000000e+05
    1.5009956434e-02    1.0120000000e+05
    1.5019796789e-02    1.0120000000e+05
    1.5029903501e-02    1.0120000000e+05
    1.5039743856e-02    1.0120000000e+05
    1.5049850568e-02    1.0120000000e+05
    1.5059957281e-02    1.0120000000e+05
    1.5069797635e-02    1.0120000000e+05
    1.5079904348e-02    1.0120000000e+05
    1.5089745633e-02    1.0120000000e+05
    1.5099853277e-02    1.0120000000e+05
    1.5109959990e-02    1.0120000000e+05
    1.5119802207e-02    1.0120000000e+05
    1.5129908919e-02    1.0120000000e+05
    1.5139751136e-02    1.0120000000e+05
    1.5149858780e-02    1.0120000000e+05
    1.5159966424e-02    1.0120000000e+05
    1.5169808641e-02    1.0120000000e+05
    1.5179917216e-02    1.0120000000e+05
    1.5189759433e-02    1.0120000000e+05
    1.5199867077e-02    1.0120000000e+05
    1.5209975652e-02    1.0120000000e+05
    1.5219817869e-02    1.0120000000e+05
    1.5229926445e-02    1.0120000000e+05
    1.5239769593e-02    1.0120000000e+05
    1.5249878168e-02    1.0120000000e+05
    1.5259987675e-02    1.0120000000e+05
    1.5269830823e-02    1.0120000000e+05
    1.5279940329e-02    1.0120000000e+05
    1.5289783478e-02    1.0120000000e+05
    1.5299892984e-02    1.0120000000e+05
    1.5309736133e-02    1.0120000000e+05
    1.5319845639e-02    1.0120000000e+05
    1.5329955146e-02    1.0120000000e+05
    1.5339799225e-02    1.0120000000e+05
    1.5349908732e-02    1.0120000000e+05
    1.5359752811e-02    1.0120000000e+05
    1.5369863249e-02    1.0120000000e+05
    1.5379973687e-02    1.0120000000e+05
    1.5389817767e-02    1.0120000000e+05
    1.5399928205e-02    1.0120000000e+05
    1.5409772284e-02    1.0120000000e+05
    1.5419883654e-02    1.0120000000e+05
    1.5429994091e-02    1.0120000000e+05
    1.5439839102e-02    1.0120000000e+05
    1.5449949540e-02    1.0120000000e+05
    1.5459794551e-02    1.0120000000e+05
    1.5469905920e-02    1.0120000000e+05
    1.5479750931e-02    1.0120000000e+05
    1.5489861369e-02    1.0120000000e+05
    1.5499972738e-02    1.0120000000e+05
    1.5509818681e-02    1.0120000000e+05
    1.5519930050e-02    1.0120000000e+05
    1.5529775061e-02    1.0120000000e+05
    1.5539887361e-02    1.0120000000e+05
    1.5549998730e-02    1.0120000000e+05
    1.5559844673e-02    1.0120000000e+05
    1.5569956042e-02    1.0120000000e+05
    1.5579801984e-02    1.0120000000e+05
    1.5589913353e-02    1.0120000000e+05
    1.5599759296e-02    1.0120000000e+05
    1.5609871596e-02    1.0120000000e+05
    1.5619983897e-02    1.0120000000e+05
    1.5629829839e-02    1.0120000000e+05
    1.5639942139e-02    1.0120000000e+05
    1.5649788082e-02    1.0120000000e+05
    1.5659900382e-02    1.0120000000e+05
    1.5669746324e-02    1.0120000000e+05
    1.5679860488e-02    1.0120000000e+05
    1.5689972788e-02    1.0120000000e+05
    1.5699818730e-02    1.0120000000e+05
    1.5709931031e-02    1.0120000000e+05
    1.5719778836e-02    1.0120000000e+05
    1.5729891136e-02    1.0120000000e+05
    1.5739737079e-02    1.0120000000e+05
    1.5749851242e-02    1.0120000000e+05
    1.5759963542e-02    1.0120000000e+05
    1.5769809484e-02    1.0120000000e+05
    1.5779923648e-02    1.0120000000e+05
    1.5789769590e-02    1.0120000000e+05
    1.5799883753e-02    1.0120000000e+05
    1.5809996054e-02    1.0120000000e+05
    1.5819843858e-02    1.0120000000e+05
    1.5829956159e-02    1.0120000000e+05
    1.5839803964e-02    1.0120000000e+05
    1.5849916264e-02    1.0120000000e+05
    1.5859764069e-02    1.0120000000e+05
    1.5869876370e-02    1.0120000000e+05
    1.5879990533e-02    1.0120000000e+05
    1.5889838338e-02    1.0120000000e+05
    1.5899950638e-02    1.0120000000e+05
    1.5909798443e-02    1.0120000000e+05
    1.5919910744e-02    1.0120000000e+05
    1.5929758549e-02    1.0120000000e+05
    1.5939872712e-02    1.0120000000e+05
    1.5949985012e-02    1.0120000000e+05
    1.5959832817e-02    1.0120000000e+05
    1.5969946980e-02    1.0120000000e+05
    1.5979792923e-02    1.0120000000e+05
    1.5989907086e-02    1.0120000000e+05
    1.5999754891e-02    1.0120000000e+05
    1.6009867191e-02    1.0120000000e+05
    1.6019981354e-02    1.0120000000e+05
    1.6029829159e-02    1.0120000000e+05
    1.6039941460e-02    1.0120000000e+05
    1.6049789265e-02    1.0120000000e+05
    1.6059903428e-02    1.0120000000e+05
    1.6069751233e-02    1.0120000000e+05
    1.6079863533e-02    1.0120000000e+05
    1.6089977697e-02    1.0120000000e+05
    1.6099825501e-02    1.0120000000e+05
    1.6109937802e-02    1.0120000000e+05
    1.6119785607e-02    1.0120000000e+05
    1.6129899770e-02    1.0120000000e+05
    1.6139745712e-02    1.0120000000e+05
    1.6149859875e-02    1.0120000000e+05
    1.6159974039e-02    1.0120000000e+05
    1.6169819981e-02    1.0120000000e+05
    1.6179934144e-02    1.0120000000e+05
    1.6189781949e-02    1.0120000000e+05
    1.6199894249e-02    1.0120000000e+05
    1.6209742054e-02    1.0120000000e+05
    1.6219856218e-02    1.0120000000e+05
    1.6229968518e-02    1.0120000000e+05
    1.6239816323e-02    1.0120000000e+05
    1.6249930486e-02    1.0120000000e+05
    1.6259776428e-02    1.0120000000e+05
    1.6269890592e-02    1.0120000000e+05
    1.6279738396e-02    1.0120000000e+05
    1.6289850697e-02    1.0120000000e+05
    1.6299964860e-02    1.0120000000e+05
    1.6309812665e-02    1.0120000000e+05
    1.6319924966e-02    1.0120000000e+05
    1.6329772770e-02    1.0120000000e+05
    1.6339885071e-02    1.0120000000e+05
    1.6349999234e-02    1.0120000000e+05
    1.6359845176e-02    1.0120000000e+05
    1.6369959339e-02    1.0120000000e+05
    1.6379807144e-02    1.0120000000e+05
    1.6389919445e-02    1.0120000000e+05
    1.6399767250e-02    1.0120000000e+05
    1.6409879550e-02    1.0120000000e+05
    1.6419993713e-02    1.0120000000e+05
    1.6429839656e-02    1.0120000000e+05
    1.6439953819e-02    1.0120000000e+05
    1.6449799761e-02    1.0120000000e+05
    1.6459913924e-02    1.0120000000e+05
    1.6469759867e-02    1.0120000000e+05
    1.6479874030e-02    1.0120000000e+05
    1.6489986330e-02    1.0120000000e+05
    1.6499832273e-02    1.0120000000e+05
    1.6509946436e-02    1.0120000000e+05
    1.6519792378e-02    1.0120000000e+05
    1.6529906541e-02    1.0120000000e+05
    1.6539752483e-02    1.0120000000e+05
    1.6549866647e-02    1.0120000000e+05
    1.6559978947e-02    1.0120000000e+05
    1.6569824889e-02    1.0120000000e+05
    1.6579939052e-02    1.0120000000e+05
    1.6589786857e-02    1.0120000000e+05
    1.6599899158e-02    1.0120000000e+05
    1.6609746963e-02    1.0120000000e+05
    1.6619861126e-02    1.0120000000e+05
    1.6629973426e-02    1.0120000000e+05
    1.6639821231e-02    1.0120000000e+05
    1.6649935395e-02    1.0120000000e+05
    1.6659783199e-02    1.0120000000e+05
    1.6669899225e-02    1.0120000000e+05
    1.6679747030e-02    1.0120000000e+05
    1.6689861193e-02    1.0120000000e+05
    1.6699977219e-02    1.0120000000e+05
    1.6709826887e-02    1.0120000000e+05
    1.6719942912e-02    1.0120000000e+05
    1.6729792580e-02    1.0120000000e+05
    1.6739908606e-02    1.0120000000e+05
    1.6749760136e-02    1.0120000000e+05
    1.6759876162e-02    1.0120000000e+05
    1.6769994050e-02    1.0120000000e+05
    1.6779845580e-02    1.0120000000e+05
    1.6789963469e-02    1.0120000000e+05
    1.6799816862e-02    1.0120000000e+05
    1.6809936613e-02    1.0120000000e+05
    1.6819788143e-02    1.0120000000e+05
    1.6829907894e-02    1.0120000000e+05
    1.6839759424e-02    1.0120000000e+05
    1.6849879175e-02    1.0120000000e+05
    1.6859998927e-02    1.0120000000e+05
    1.6869850457e-02    1.0120000000e+05
    1.6879972070e-02    1.0120000000e+05
    1.6889827326e-02    1.0120000000e+05
    1.6899948940e-02    1.0120000000e+05
    1.6909804195e-02    1.0120000000e+05
    1.6919927672e-02    1.0120000000e+05
    1.6929784790e-02    1.0120000000e+05
    1.6939908266e-02    1.0120000000e+05
    1.6949765384e-02    1.0120000000e+05
    1.6959888861e-02    1.0120000000e+05
    1.6969747841e-02    1.0120000000e+05
    1.6979873180e-02    1.0120000000e+05
    1.6989998519e-02    1.0120000000e+05
    1.6999859363e-02    1.0120000000e+05
    1.7009986565e-02    1.0120000000e+05
    1.7019847408e-02    1.0120000000e+05
    1.7029976472e-02    1.0120000000e+05
    1.7039841041e-02    1.0120000000e+05
    1.7049971968e-02    1.0120000000e+05
    1.7059834674e-02    1.0120000000e+05
    1.7069967464e-02    1.0120000000e+05
    1.7079833895e-02    1.0120000000e+05
    1.7089966685e-02    1.0120000000e+05
    1.7099833116e-02    1.0120000000e+05
    1.7109965906e-02    1.0120000000e+05
    1.7119834200e-02    1.0120000000e+05
    1.7129968852e-02    1.0120000000e+05
    1.7139839008e-02    1.0120000000e+05
    1.7149975523e-02    1.0120000000e+05
    1.7159845680e-02    1.0120000000e+05
    1.7169985920e-02    1.0120000000e+05
    1.7179859802e-02    1.0120000000e+05
    1.7189735547e-02    1.0120000000e+05
    1.7199877650e-02    1.0120000000e+05
    1.7209755257e-02    1.0120000000e+05
    1.7219901085e-02    1.0120000000e+05
    1.7229780555e-02    1.0120000000e+05
    1.7239930108e-02    1.0120000000e+05
    1.7249809578e-02    1.0120000000e+05
    1.7259959131e-02    1.0120000000e+05
    1.7269842327e-02    1.0120000000e+05
    1.7279995605e-02    1.0120000000e+05
    1.7289880663e-02    1.0120000000e+05
    1.7299769446e-02    1.0120000000e+05
    1.7309924588e-02    1.0120000000e+05
    1.7319813371e-02    1.0120000000e+05
    1.7329974100e-02    1.0120000000e+05
    1.7339868471e-02    1.0120000000e+05
    1.7349762842e-02    1.0120000000e+05
    1.7359925434e-02    1.0120000000e+05
    1.7369823530e-02    1.0120000000e+05
    1.7379989848e-02    1.0120000000e+05
    1.7389891669e-02    1.0120000000e+05
    1.7399791628e-02    1.0120000000e+05
    1.7409961671e-02    1.0120000000e+05
    1.7419867218e-02    1.0120000000e+05
    1.7429774627e-02    1.0120000000e+05
    1.7439952120e-02    1.0120000000e+05
    1.7449861392e-02    1.0120000000e+05
    1.7459770665e-02    1.0120000000e+05
    1.7469953746e-02    1.0120000000e+05
    1.7479868606e-02    1.0120000000e+05
    1.7489785329e-02    1.0120000000e+05
    1.7499970272e-02    1.0120000000e+05
    1.7509888858e-02    1.0120000000e+05
    1.7519811168e-02    1.0120000000e+05
    1.7529737204e-02    1.0120000000e+05
    1.7539929599e-02    1.0120000000e+05
    1.7549855635e-02    1.0120000000e+05
    1.7559783533e-02    1.0120000000e+05
    1.7569981515e-02    1.0120000000e+05
    1.7579916865e-02    1.0120000000e+05
    1.7589852214e-02    1.0120000000e+05
    1.7599785700e-02    1.0120000000e+05
    1.7609992996e-02    1.0120000000e+05
    1.7619933933e-02    1.0120000000e+05
    1.7629876733e-02    1.0120000000e+05
    1.7639821395e-02    1.0120000000e+05
    1.7649764195e-02    1.0120000000e+05
    1.7659984529e-02    1.0120000000e+05
    1.7669936642e-02    1.0120000000e+05
    1.7679890618e-02    1.0120000000e+05
    1.7689844593e-02    1.0120000000e+05
    1.7699798569e-02    1.0120000000e+05
    1.7709750682e-02    1.0120000000e+05
    1.7719980329e-02    1.0120000000e+05
    1.7729945481e-02    1.0120000000e+05
    1.7739910632e-02    1.0120000000e+05
    1.7749881372e-02    1.0120000000e+05
    1.7759852111e-02    1.0120000000e+05
    1.7769822851e-02    1.0120000000e+05
    1.7779795453e-02    1.0120000000e+05
    1.7789769918e-02    1.0120000000e+05
    1.7799744383e-02    1.0120000000e+05
    1.7809992656e-02    1.0120000000e+05
    1.7819972709e-02    1.0120000000e+05
    1.7829954624e-02    1.0120000000e+05
    1.7839940265e-02    1.0120000000e+05
    1.7849924043e-02    1.0120000000e+05
    1.7859909683e-02    1.0120000000e+05
    1.7869900912e-02    1.0120000000e+05
    1.7879890278e-02    1.0120000000e+05
    1.7889887094e-02    1.0120000000e+05
    1.7899883911e-02    1.0120000000e+05
    1.7909886315e-02    1.0120000000e+05
    1.7919892445e-02    1.0120000000e+05
    1.7929898575e-02    1.0120000000e+05
    1.7939904705e-02    1.0120000000e+05
    1.7949912697e-02    1.0120000000e+05
    1.7959918827e-02    1.0120000000e+05
    1.7969924957e-02    1.0120000000e+05
    1.7979940400e-02    1.0120000000e+05
    1.7989959568e-02    1.0120000000e+05
    1.7999980599e-02    1.0120000000e+05
    1.8009731546e-02    1.0120000000e+05
    1.8019754440e-02    1.0120000000e+05
    1.8029777333e-02    1.0120000000e+05
    1.8039803952e-02    1.0120000000e+05
    1.8049826846e-02    1.0120000000e+05
    1.8059857190e-02    1.0120000000e+05
    1.8069889396e-02    1.0120000000e+05
    1.8079927191e-02    1.0120000000e+05
    1.8089968711e-02    1.0120000000e+05
    1.8099740148e-02    1.0120000000e+05
    1.8109777942e-02    1.0120000000e+05
    1.8119823188e-02    1.0120000000e+05
    1.8129868433e-02    1.0120000000e+05
    1.8139917403e-02    1.0120000000e+05
    1.8149970099e-02    1.0120000000e+05
    1.8159748986e-02    1.0120000000e+05
    1.8169809133e-02    1.0120000000e+05
    1.8179867417e-02    1.0120000000e+05
    1.8189927563e-02    1.0120000000e+05
    1.8199985847e-02    1.0120000000e+05
    1.8209779635e-02    1.0120000000e+05
    1.8219847232e-02    1.0120000000e+05
    1.8229918554e-02    1.0120000000e+05
    1.8239993602e-02    1.0120000000e+05
    1.8249796703e-02    1.0120000000e+05
    1.8259873614e-02    1.0120000000e+05
    1.8269952387e-02    1.0120000000e+05
    1.8279759213e-02    1.0120000000e+05
    1.8289837986e-02    1.0120000000e+05
    1.8299920484e-02    1.0120000000e+05
    1.8309736624e-02    1.0120000000e+05
    1.8319830298e-02    1.0120000000e+05
    1.8329923972e-02    1.0120000000e+05
    1.8339749426e-02    1.0120000000e+05
    1.8349843100e-02    1.0120000000e+05
    1.8359940499e-02    1.0120000000e+05
    1.8369760364e-02    1.0120000000e+05
    1.8379861489e-02    1.0120000000e+05
    1.8389966339e-02    1.0120000000e+05
    1.8399806693e-02    1.0120000000e+05
    1.8409922719e-02    1.0120000000e+05
    1.8419768661e-02    1.0120000000e+05
    1.8429888412e-02    1.0120000000e+05
    1.8439738080e-02    1.0120000000e+05
    1.8449859694e-02    1.0120000000e+05
    1.8459981307e-02    1.0120000000e+05
    1.8469836563e-02    1.0120000000e+05
    1.8479963765e-02    1.0120000000e+05
    1.8489826471e-02    1.0120000000e+05
    1.8499964848e-02    1.0120000000e+05
    1.8509833142e-02    1.0120000000e+05
    1.8519973382e-02    1.0120000000e+05
    1.8529843539e-02    1.0120000000e+05
    1.8539987504e-02    1.0120000000e+05
    1.8549863249e-02    1.0120000000e+05
    1.8559738994e-02    1.0120000000e+05
    1.8569894135e-02    1.0120000000e+05
    1.8579777330e-02    1.0120000000e+05
    1.8589938059e-02    1.0120000000e+05
    1.8599824980e-02    1.0120000000e+05
    1.8609989434e-02    1.0120000000e+05
    1.8619880080e-02    1.0120000000e+05
    1.8629774451e-02    1.0120000000e+05
    1.8639944494e-02    1.0120000000e+05
    1.8649840727e-02    1.0120000000e+05
    1.8659738824e-02    1.0120000000e+05
    1.8669912592e-02    1.0120000000e+05
    1.8679812551e-02    1.0120000000e+05
    1.8689986318e-02    1.0120000000e+05
    1.8699890003e-02    1.0120000000e+05
    1.8709793687e-02    1.0120000000e+05
    1.8719980493e-02    1.0120000000e+05
    1.8729891628e-02    1.0120000000e+05
    1.8739806488e-02    1.0120000000e+05
    1.8749998882e-02    1.0120000000e+05
    1.8759915605e-02    1.0120000000e+05
    1.8769824877e-02    1.0120000000e+05
    1.8779730424e-02    1.0120000000e+05
    1.8789906055e-02    1.0120000000e+05
    1.8799802288e-02    1.0120000000e+05
    1.8809966743e-02    1.0120000000e+05
    1.8819851801e-02    1.0120000000e+05
    1.8829731271e-02    1.0120000000e+05
    1.8839897588e-02    1.0120000000e+05
    1.8849933520e-02    1.0120000000e+05
    1.8859853968e-02    1.0120000000e+05
    1.8869932741e-02    1.0120000000e+05
    1.8879875541e-02    1.0120000000e+05
    1.8889965490e-02    1.0120000000e+05
    1.8899898976e-02    1.0120000000e+05
    1.8909968436e-02    1.0120000000e+05
    1.8919862807e-02    1.0120000000e+05
    1.8929887563e-02    1.0120000000e+05
    1.8939720467e-02    1.0120000000e+05
    1.8949994817e-02    1.0120000000e+05
    1.8959742039e-02    1.0120000000e+05
    1.8969936296e-02    1.0120000000e+05
    1.8979916349e-02    1.0120000000e+05
    1.8989665434e-02    1.0120000000e+05
    1.8999859691e-02    1.0120000000e+05
    1.9009824842e-02    1.0120000000e+05
    1.9019892439e-02    1.0120000000e+05
    1.9029708579e-02    1.0120000000e+05
    1.9039975479e-02    1.0120000000e+05
    1.9049989060e-02    1.0120000000e+05
    1.9059736282e-02    1.0120000000e+05
    1.9069939852e-02    1.0120000000e+05
    1.9079864025e-02    1.0120000000e+05
    1.9089872018e-02    1.0120000000e+05
    1.9099971280e-02    1.0120000000e+05
    1.9109765068e-02    1.0120000000e+05
    1.9119627774e-02    1.0120000000e+05
    1.9129941240e-02    1.0120000000e+05
    1.9139910117e-02    1.0120000000e+05
    1.9149981439e-02    1.0120000000e+05
    1.9159778953e-02    1.0120000000e+05
    1.9169978797e-02    1.0120000000e+05
    1.9179917872e-02    1.0120000000e+05
    1.9189862534e-02    1.0120000000e+05
    1.9199812785e-02    1.0120000000e+05
    1.9209772348e-02    1.0120000000e+05
    1.9219985232e-02    1.0120000000e+05
    1.9229972735e-02    1.0120000000e+05
    1.9239980727e-02    1.0120000000e+05
    1.9249752164e-02    1.0120000000e+05
    1.9259788096e-02    1.0120000000e+05
    1.9269838929e-02    1.0120000000e+05
    1.9279904664e-02    1.0120000000e+05
    1.9289998338e-02    1.0120000000e+05
    1.9299870357e-02    1.0120000000e+05
    1.9309764728e-02    1.0120000000e+05
    1.9319936633e-02    1.0120000000e+05
    1.9329873845e-02    1.0120000000e+05
    1.9339831546e-02    1.0120000000e+05
    1.9349807873e-02    1.0120000000e+05
    1.9359802827e-02    1.0120000000e+05
    1.9369814545e-02    1.0120000000e+05
    1.9379841164e-02    1.0120000000e+05
    1.9389871508e-02    1.0120000000e+05
    1.9399907440e-02    1.0120000000e+05
    1.9409961998e-02    1.0120000000e+05
    1.9419772550e-02    1.0120000000e+05
    1.9429856911e-02    1.0120000000e+05
    1.9439958036e-02    1.0120000000e+05
[...]
    1.3513992727e-01    1.0122334375e+05
    1.3514982164e-01    1.0122333594e+05
    1.3515971601e-01    1.0122332031e+05
    1.3516993821e-01    1.0122331250e+05
    1.3517983258e-01    1.0122328906e+05
    1.3518972695e-01    1.0122328906e+05
    1.3519994915e-01    1.0122328125e+05
    1.3520984352e-01    1.0122327344e+05
    1.3521975279e-01    1.0122325781e+05
    1.3522996008e-01    1.0122325000e+05
    1.3523985445e-01    1.0122324219e+05
    1.3524976373e-01    1.0122322656e+05
    1.3525997102e-01    1.0122321875e+05
    1.3526986539e-01    1.0122321094e+05
    1.3527977467e-01    1.0122321094e+05
    1.3528998196e-01    1.0122318750e+05
    1.3529987633e-01    1.0122317969e+05
    1.3530978560e-01    1.0122316406e+05
    1.3531999290e-01    1.0122315625e+05
    1.3532988727e-01    1.0122314844e+05
    1.3533979654e-01    1.0122314844e+05
    1.3534969091e-01    1.0122313281e+05
    1.3535989821e-01    1.0122311719e+05
    1.3536980748e-01    1.0122310156e+05
    1.3537970185e-01    1.0122310156e+05
    1.3538990915e-01    1.0122309375e+05
    1.3539981842e-01    1.0122308594e+05
    1.3540971279e-01    1.0122307031e+05
    1.3541993499e-01    1.0122306250e+05
    1.3542982936e-01    1.0122305469e+05
    1.3543972373e-01    1.0122303906e+05
    1.3544994593e-01    1.0122303906e+05
    1.3545984030e-01    1.0122302344e+05
    1.3546973467e-01    1.0122302344e+05
    1.3547995687e-01    1.0122300781e+05
    1.3548985124e-01    1.0122300000e+05
    1.3549976051e-01    1.0122299219e+05
    1.3550996780e-01    1.0122297656e+05
    1.3551986217e-01    1.0122296875e+05
    1.3552977145e-01    1.0122296094e+05
    1.3553997874e-01    1.0122296094e+05
    1.3554987311e-01    1.0122294531e+05
    1.3555978239e-01    1.0122293750e+05
    1.3556998968e-01    1.0122292969e+05
    1.3557988405e-01    1.0122291406e+05
    1.3558979332e-01    1.0122290625e+05
    1.3560000062e-01    1.0122289844e+05
    1.3560989499e-01    1.0122289844e+05
    1.3561980426e-01    1.0122288281e+05
    1.3562969863e-01    1.0122287500e+05
    1.3563990593e-01    1.0122286719e+05
    1.3564981520e-01    1.0122285156e+05
    1.3565970957e-01    1.0122285156e+05
    1.3566993177e-01    1.0122284375e+05
    1.3567982614e-01    1.0122283594e+05
    1.3568972051e-01    1.0122282031e+05
    1.3569994271e-01    1.0122281250e+05
    1.3570983708e-01    1.0122280469e+05
    1.3571973145e-01    1.0122278906e+05
    1.3572995365e-01    1.0122278906e+05
    1.3573984802e-01    1.0122278125e+05
    1.3574975729e-01    1.0122277344e+05
    1.3575996459e-01    1.0122277344e+05
    1.3576985896e-01    1.0122275781e+05
    1.3577976823e-01    1.0122275000e+05
    1.3578997552e-01    1.0122274219e+05
    1.3579986989e-01    1.0122272656e+05
    1.3580977917e-01    1.0122272656e+05
    1.3581998646e-01    1.0122271875e+05
    1.3582988083e-01    1.0122271094e+05
    1.3583979011e-01    1.0122271094e+05
    1.3584999740e-01    1.0122269531e+05
    1.3585989177e-01    1.0122268750e+05
    1.3586980104e-01    1.0122267969e+05
    1.3587969542e-01    1.0122266406e+05
    1.3588990271e-01    1.0122265625e+05
    1.3589981198e-01    1.0122264844e+05
    1.3590970635e-01    1.0122264844e+05
    1.3591991365e-01    1.0122263281e+05
    1.3592982292e-01    1.0122262500e+05
    1.3593971729e-01    1.0122261719e+05
    1.3594993949e-01    1.0122260156e+05
    1.3595983386e-01    1.0122260156e+05
    1.3596972823e-01    1.0122259375e+05
    1.3597995043e-01    1.0122258594e+05
    1.3598984480e-01    1.0122258594e+05
    1.3599973917e-01    1.0122257031e+05
    1.3600996137e-01    1.0122256250e+05
    1.3601985574e-01    1.0122255469e+05
    1.3602976501e-01    1.0122253906e+05
    1.3603997231e-01    1.0122253906e+05
    1.3604986668e-01    1.0122253125e+05
    1.3605977595e-01    1.0122252344e+05
    1.3606998324e-01    1.0122252344e+05
    1.3607987761e-01    1.0122250781e+05
    1.3608978689e-01    1.0122250000e+05
    1.3609999418e-01    1.0122249219e+05
    1.3610988855e-01    1.0122247656e+05
    1.3611979783e-01    1.0122246875e+05
    1.3612969220e-01    1.0122246094e+05
    1.3613989949e-01    1.0122246094e+05
    1.3614980876e-01    1.0122244531e+05
    1.3615970314e-01    1.0122243750e+05
    1.3616991043e-01    1.0122242969e+05
    1.3617981970e-01    1.0122241406e+05
    1.3618971407e-01    1.0122241406e+05
    1.3619993627e-01    1.0122240625e+05
    1.3620983064e-01    1.0122239844e+05
    1.3621972501e-01    1.0122239844e+05
    1.3622994721e-01    1.0122238281e+05
    1.3623984158e-01    1.0122237500e+05
    1.3624973595e-01    1.0122236719e+05
    1.3625995815e-01    1.0122235156e+05
    1.3626985252e-01    1.0122234375e+05
    1.3627976179e-01    1.0122233594e+05
    1.3628996909e-01    1.0122233594e+05
    1.3629986346e-01    1.0122232031e+05
    1.3630977273e-01    1.0122231250e+05
    1.3631998003e-01    1.0122230469e+05
    1.3632987440e-01    1.0122228906e+05
    1.3633978367e-01    1.0122228906e+05
    1.3634999096e-01    1.0122228125e+05
    1.3635988533e-01    1.0122227344e+05
    1.3636979461e-01    1.0122225781e+05
    1.3637968898e-01    1.0122225000e+05
    1.3638989627e-01    1.0122224219e+05
    1.3639980555e-01    1.0122222656e+05
    1.3640969992e-01    1.0122222656e+05
    1.3641990721e-01    1.0122221875e+05
    1.3642981648e-01    1.0122221094e+05
    1.3643971086e-01    1.0122221094e+05
    1.3644991815e-01    1.0122219531e+05
    1.3645982742e-01    1.0122218750e+05
    1.3646972179e-01    1.0122216406e+05
    1.3647994399e-01    1.0122216406e+05
    1.3648983836e-01    1.0122215625e+05
    1.3649973273e-01    1.0122214844e+05
    1.3650995493e-01    1.0122214844e+05
    1.3651984930e-01    1.0122213281e+05
    1.3652974367e-01    1.0122212500e+05
    1.3653996587e-01    1.0122211719e+05
    1.3654986024e-01    1.0122210156e+05
    1.3655976951e-01    1.0122209375e+05
    1.3656997681e-01    1.0122208594e+05
    1.3657987118e-01    1.0122208594e+05
    1.3658978045e-01    1.0122207031e+05
    1.3659998775e-01    1.0122206250e+05
    1.3660988212e-01    1.0122205469e+05
    1.3661979139e-01    1.0122203906e+05
    1.3662999868e-01    1.0122203906e+05
    1.3663989305e-01    1.0122203125e+05
    1.3664980233e-01    1.0122202344e+05
    1.3665969670e-01    1.0122200781e+05
    1.3666990399e-01    1.0122200000e+05
    1.3667981327e-01    1.0122199219e+05
    1.3668970764e-01    1.0122197656e+05
    1.3669991493e-01    1.0122197656e+05
    1.3670982420e-01    1.0122196875e+05
    1.3671971858e-01    1.0122196094e+05
    1.3672994077e-01    1.0122196094e+05
    1.3673983514e-01    1.0122194531e+05
    1.3674972951e-01    1.0122192969e+05
    1.3675995171e-01    1.0122191406e+05
    1.3676984608e-01    1.0122191406e+05
    1.3677974045e-01    1.0122190625e+05
    1.3678996265e-01    1.0122189844e+05
    1.3679985702e-01    1.0122189844e+05
    1.3680976629e-01    1.0122188281e+05
    1.3681997359e-01    1.0122187500e+05
    1.3682986796e-01    1.0122186719e+05
    1.3683977723e-01    1.0122185156e+05
    1.3684998453e-01    1.0122184375e+05
    1.3685987890e-01    1.0122183594e+05
    1.3686978817e-01    1.0122183594e+05
    1.3687999547e-01    1.0122182031e+05
    1.3688988984e-01    1.0122181250e+05
    1.3689979911e-01    1.0122180469e+05
    1.3690969348e-01    1.0122178906e+05
    1.3691990077e-01    1.0122178906e+05
    1.3692981005e-01    1.0122178125e+05
    1.3693970442e-01    1.0122177344e+05
    1.3694991171e-01    1.0122177344e+05
    1.3695982099e-01    1.0122175781e+05
    1.3696971536e-01    1.0122174219e+05
    1.3697993755e-01    1.0122172656e+05
    1.3698983192e-01    1.0122172656e+05
    1.3699972630e-01    1.0122171875e+05
    1.3700994849e-01    1.0122171094e+05
    1.3701984286e-01    1.0122171094e+05
    1.3702973723e-01    1.0122169531e+05
    1.3703995943e-01    1.0122168750e+05
    1.3704985380e-01    1.0122167969e+05
    1.3705976307e-01    1.0122166406e+05
    1.3706997037e-01    1.0122166406e+05
    1.3707986474e-01    1.0122165625e+05
    1.3708977401e-01    1.0122164844e+05
    1.3709998131e-01    1.0122164844e+05
    1.3710987568e-01    1.0122163281e+05
    1.3711978495e-01    1.0122162500e+05
    1.3712999225e-01    1.0122160156e+05
    1.3713988662e-01    1.0122160156e+05
    1.3714979589e-01    1.0122159375e+05
    1.3715969026e-01    1.0122158594e+05
    1.3716989756e-01    1.0122158594e+05
    1.3717980683e-01    1.0122157031e+05
    1.3718970120e-01    1.0122156250e+05
    1.3719990849e-01    1.0122155469e+05
    1.3720981777e-01    1.0122153906e+05
    1.3721971214e-01    1.0122153906e+05
    1.3722991943e-01    1.0122153125e+05
    1.3723982871e-01    1.0122152344e+05
    1.3724972308e-01    1.0122152344e+05
    1.3725994527e-01    1.0122150781e+05
    1.3726983964e-01    1.0122150000e+05
    1.3727973402e-01    1.0122149219e+05
    1.3728995621e-01    1.0122147656e+05
    1.3729985058e-01    1.0122147656e+05
    1.3730975986e-01    1.0122146875e+05
    1.3731996715e-01    1.0122146094e+05
    1.3732986152e-01    1.0122146094e+05
    1.3733977079e-01    1.0122144531e+05
    1.3734997809e-01    1.0122143750e+05
    1.3735987246e-01    1.0122142969e+05
    1.3736978173e-01    1.0122141406e+05
    1.3737998903e-01    1.0122141406e+05
    1.3738988340e-01    1.0122140625e+05
    1.3739979267e-01    1.0122139844e+05
    1.3740999997e-01    1.0122139844e+05
    1.3741989434e-01    1.0122138281e+05
    1.3742980361e-01    1.0122137500e+05
    1.3743969798e-01    1.0122136719e+05
    1.3744990528e-01    1.0122135156e+05
    1.3745981455e-01    1.0122135156e+05
    1.3746970892e-01    1.0122134375e+05
    1.3747991621e-01    1.0122133594e+05
    1.3748982549e-01    1.0122133594e+05
    1.3749971986e-01    1.0122132031e+05
    1.3750994205e-01    1.0122130469e+05
    1.3751983643e-01    1.0122128906e+05
    1.3752973080e-01    1.0122128906e+05
    1.3753995299e-01    1.0122128125e+05
    1.3754984736e-01    1.0122127344e+05
    1.3755974174e-01    1.0122127344e+05
    1.3756996393e-01    1.0122125781e+05
    1.3757985830e-01    1.0122125000e+05
    1.3758976758e-01    1.0122124219e+05
    1.3759997487e-01    1.0122122656e+05
    1.3760986924e-01    1.0122122656e+05
    1.3761977851e-01    1.0122121875e+05
    1.3762998581e-01    1.0122121094e+05
    1.3763988018e-01    1.0122121094e+05
    1.3764978945e-01    1.0122119531e+05
    1.3765999675e-01    1.0122118750e+05
    1.3766989112e-01    1.0122117969e+05
    1.3767980039e-01    1.0122116406e+05
    1.3768969476e-01    1.0122116406e+05
    1.3769990206e-01    1.0122115625e+05
    1.3770981133e-01    1.0122114844e+05
    1.3771970570e-01    1.0122114844e+05
    1.3772991300e-01    1.0122113281e+05
    1.3773982227e-01    1.0122112500e+05
    1.3774971664e-01    1.0122111719e+05
    1.3775993884e-01    1.0122110156e+05
    1.3776983321e-01    1.0122110156e+05
    1.3777972758e-01    1.0122109375e+05
    1.3778994977e-01    1.0122108594e+05
    1.3779984415e-01    1.0122108594e+05
    1.3780973852e-01    1.0122107031e+05
    1.3781996071e-01    1.0122106250e+05
    1.3782985508e-01    1.0122105469e+05
    1.3783976436e-01    1.0122103906e+05
    1.3784997165e-01    1.0122103906e+05
    1.3785986602e-01    1.0122103125e+05
    1.3786977530e-01    1.0122102344e+05
    1.3787998259e-01    1.0122102344e+05
    1.3788987696e-01    1.0122100781e+05
    1.3789978623e-01    1.0122100000e+05
    1.3790999353e-01    1.0122099219e+05
    1.3791988790e-01    1.0122099219e+05
    1.3792979717e-01    1.0122097656e+05
    1.3793969154e-01    1.0122097656e+05
    1.3794989884e-01    1.0122096875e+05
    1.3795980811e-01    1.0122096094e+05
    1.3796970248e-01    1.0122096094e+05
    1.3797990978e-01    1.0122094531e+05
    1.3798981905e-01    1.0122093750e+05
    1.3799971342e-01    1.0122092969e+05
    1.3800993562e-01    1.0122091406e+05
    1.3801982999e-01    1.0122091406e+05
    1.3802972436e-01    1.0122090625e+05
    1.3803994656e-01    1.0122089844e+05
    1.3804984093e-01    1.0122089844e+05
    1.3805973530e-01    1.0122088281e+05
    1.3806995749e-01    1.0122087500e+05
    1.3807985187e-01    1.0122086719e+05
    1.3808976114e-01    1.0122085156e+05
    1.3809996843e-01    1.0122085156e+05
    1.3810986280e-01    1.0122084375e+05
    1.3811977208e-01    1.0122083594e+05
    1.3812997937e-01    1.0122083594e+05
    1.3813987374e-01    1.0122082031e+05
    1.3814978302e-01    1.0122081250e+05
    1.3815999031e-01    1.0122080469e+05
    1.3816988468e-01    1.0122078906e+05
    1.3817979395e-01    1.0122078906e+05
    1.3818968832e-01    1.0122078125e+05
    1.3819989562e-01    1.0122077344e+05
    1.3820980489e-01    1.0122077344e+05
    1.3821969926e-01    1.0122077344e+05
    1.3822990656e-01    1.0122075781e+05
    1.3823981583e-01    1.0122075000e+05
    1.3824971020e-01    1.0122074219e+05
    1.3825993240e-01    1.0122072656e+05
    1.3826982677e-01    1.0122072656e+05
    1.3827972114e-01    1.0122071875e+05
    1.3828994334e-01    1.0122071094e+05
    1.3829983771e-01    1.0122071094e+05
    1.3830973208e-01    1.0122069531e+05
    1.3831995428e-01    1.0122068750e+05
    1.3832984865e-01    1.0122067969e+05
    1.3833975792e-01    1.0122066406e+05
    1.3834996521e-01    1.0122066406e+05
    1.3835985959e-01    1.0122065625e+05
    1.3836976886e-01    1.0122064844e+05
    1.3837997615e-01    1.0122064844e+05
    1.3838987052e-01    1.0122063281e+05
    1.3839977980e-01    1.0122062500e+05
    1.3840998709e-01    1.0122061719e+05
    1.3841988146e-01    1.0122060156e+05
    1.3842979074e-01    1.0122060156e+05
    1.3843999803e-01    1.0122059375e+05
    1.3844989240e-01    1.0122059375e+05
    1.3845980167e-01    1.0122058594e+05
    1.3846969604e-01    1.0122058594e+05
    1.3847990334e-01    1.0122057031e+05
    1.3848981261e-01    1.0122056250e+05
    1.3849970698e-01    1.0122055469e+05
    1.3850992918e-01    1.0122053906e+05
    1.3851982355e-01    1.0122053906e+05
    1.3852971792e-01    1.0122053125e+05
    1.3853994012e-01    1.0122052344e+05
    1.3854983449e-01    1.0122052344e+05
    1.3855972886e-01    1.0122050781e+05
    1.3856995106e-01    1.0122050000e+05
    1.3857984543e-01    1.0122049219e+05
    1.3858975470e-01    1.0122049219e+05
    1.3859996200e-01    1.0122047656e+05
    1.3860985637e-01    1.0122047656e+05
    1.3861976564e-01    1.0122046875e+05
    1.3862997293e-01    1.0122046094e+05
    1.3863986731e-01    1.0122046094e+05
    1.3864977658e-01    1.0122044531e+05
    1.3865998387e-01    1.0122043750e+05
    1.3866987824e-01    1.0122042969e+05
    1.3867978752e-01    1.0122041406e+05
    1.3868999481e-01    1.0122041406e+05
    1.3869988918e-01    1.0122040625e+05
    1.3870979846e-01    1.0122039844e+05
    1.3871969283e-01    1.0122039844e+05
    1.3872990012e-01    1.0122039844e+05
    1.3873980939e-01    1.0122038281e+05
    1.3874970376e-01    1.0122037500e+05
    1.3875992596e-01    1.0122036719e+05
    1.3876982033e-01    1.0122035156e+05
    1.3877971470e-01    1.0122035156e+05
    1.3878993690e-01    1.0122034375e+05
    1.3879983127e-01    1.0122033594e+05
    1.3880974054e-01    1.0122033594e+05
    1.3881994784e-01    1.0122033594e+05
    1.3882984221e-01    1.0122032031e+05
    1.3883975148e-01    1.0122031250e+05
    1.3884995878e-01    1.0122030469e+05
    1.3885985315e-01    1.0122028906e+05
    1.3886976242e-01    1.0122028906e+05
    1.3887996972e-01    1.0122028125e+05
    1.3888986409e-01    1.0122027344e+05
    1.3889977336e-01    1.0122027344e+05
    1.3890998065e-01    1.0122027344e+05
    1.3891987503e-01    1.0122025781e+05
    1.3892978430e-01    1.0122025000e+05
    1.3893999159e-01    1.0122024219e+05
    1.3894988596e-01    1.0122022656e+05
    1.3895979524e-01    1.0122022656e+05
    1.3896968961e-01    1.0122022656e+05
    1.3897991180e-01    1.0122021875e+05
    1.3898980618e-01    1.0122021094e+05
    1.3899970055e-01    1.0122021094e+05
    1.3900992274e-01    1.0122019531e+05
    1.3901981711e-01    1.0122018750e+05
    1.3902971148e-01    1.0122017969e+05
    1.3903993368e-01    1.0122017969e+05
    1.3904982805e-01    1.0122016406e+05
    1.3905973732e-01    1.0122016406e+05
    1.3906994462e-01    1.0122015625e+05
    1.3907983899e-01    1.0122014844e+05
    1.3908974826e-01    1.0122014844e+05
    1.3909995556e-01    1.0122014844e+05
    1.3910984993e-01    1.0122013281e+05
    1.3911975920e-01    1.0122012500e+05
    1.3912996650e-01    1.0122011719e+05
    1.3913986087e-01    1.0122010156e+05
    1.3914977014e-01    1.0122010156e+05
    1.3915997744e-01    1.0122009375e+05
    1.3916987181e-01    1.0122009375e+05
    1.3917978108e-01    1.0122008594e+05
    1.3918998837e-01    1.0122008594e+05
    1.3919988275e-01    1.0122007031e+05
    1.3920979202e-01    1.0122006250e+05
    1.3921968639e-01    1.0122005469e+05
    1.3922990859e-01    1.0122005469e+05
    1.3923980296e-01    1.0122003906e+05
    1.3924969733e-01    1.0122003906e+05
    1.3925991952e-01    1.0122003125e+05
    1.3926981390e-01    1.0122002344e+05
    1.3927970827e-01    1.0122002344e+05
    1.3928993046e-01    1.0122002344e+05
    1.3929982483e-01    1.0122000781e+05
    1.3930973411e-01    1.0122000000e+05
    1.3931994140e-01    1.0121999219e+05
    1.3932983577e-01    1.0121997656e+05
    1.3933974504e-01    1.0121997656e+05
    1.3934995234e-01    1.0121997656e+05
    1.3935984671e-01    1.0121996875e+05
    1.3936975598e-01    1.0121996094e+05
    1.3937996328e-01    1.0121996094e+05
    1.3938985765e-01    1.0121996094e+05
    1.3939976692e-01    1.0121994531e+05
    1.3940997422e-01    1.0121993750e+05
    1.3941986859e-01    1.0121992969e+05
    1.3942977786e-01    1.0121992969e+05
    1.3943998516e-01    1.0121991406e+05
    1.3944987953e-01    1.0121991406e+05
    1.3945978880e-01    1.0121990625e+05
    1.3946999609e-01    1.0121989844e+05
    1.3947990537e-01    1.0121989844e+05
    1.3948979974e-01    1.0121989844e+05
    1.3949969411e-01    1.0121988281e+05
    1.3950991631e-01    1.0121987500e+05
    1.3951981068e-01    1.0121987500e+05
    1.3952970505e-01    1.0121986719e+05
    1.3953992724e-01    1.0121985156e+05
    1.3954982162e-01    1.0121985156e+05
    1.3955973089e-01    1.0121985156e+05
    1.3956993818e-01    1.0121984375e+05
    1.3957983255e-01    1.0121983594e+05
    1.3958974183e-01    1.0121983594e+05
    1.3959994912e-01    1.0121982031e+05
    1.3960984349e-01    1.0121982031e+05
    1.3961975276e-01    1.0121981250e+05
    1.3962996006e-01    1.0121980469e+05
    1.3963985443e-01    1.0121978906e+05
    1.3964976370e-01    1.0121978906e+05
    1.3965997100e-01    1.0121978906e+05
    1.3966986537e-01    1.0121978125e+05
    1.3967977464e-01    1.0121977344e+05
    1.3968998194e-01    1.0121977344e+05
    1.3969989121e-01    1.0121977344e+05
    1.3970978558e-01    1.0121975781e+05
    1.3971999288e-01    1.0121975000e+05
    1.3972990215e-01    1.0121974219e+05
    1.3973979652e-01    1.0121974219e+05
    1.3974969089e-01    1.0121972656e+05
    1.3975991309e-01    1.0121972656e+05
    1.3976980746e-01    1.0121971875e+05
    1.3977971673e-01    1.0121971094e+05
    1.3978992403e-01    1.0121971094e+05
    1.3979981840e-01    1.0121971094e+05
    1.3980972767e-01    1.0121969531e+05
    1.3981993496e-01    1.0121968750e+05
    1.3982982934e-01    1.0121967969e+05
    1.3983973861e-01    1.0121967969e+05
    1.3984994590e-01    1.0121966406e+05
    1.3985984027e-01    1.0121966406e+05
    1.3986974955e-01    1.0121965625e+05
    1.3987995684e-01    1.0121964844e+05
    1.3988985121e-01    1.0121964844e+05
    1.3989976048e-01    1.0121964844e+05
    1.3990996778e-01    1.0121963281e+05
    1.3991986215e-01    1.0121962500e+05
    1.3992977142e-01    1.0121961719e+05
    1.3993997872e-01    1.0121961719e+05
    1.3994988799e-01    1.0121960156e+05
    1.3995978236e-01    1.0121960156e+05
    1.3996998966e-01    1.0121959375e+05
    1.3997989893e-01    1.0121958594e+05
    1.3998979330e-01    1.0121958594e+05
    1.3999968767e-01    1.0121958594e+05
endcurve
