Curveplot
LS-DYNA keyword deck by LS-PrePost                          
Time
Pressure
Defined Connection
Pressure @ 21 #pts=12001
* Minval=     8.8280781250e+04 at time=         0.0324197598
* Maxval=     1.5314951562e+05 at time=         0.0172398705
    0.0000000000e+00    1.0120000000e+05
    9.9485332612e-06    1.0120000000e+05
    1.9897428501e-05    1.0120000000e+05
    2.9981401894e-05    1.0120000000e+05
    3.9982864109e-05    1.0120000000e+05
    4.9956011935e-05    1.0120000000e+05
    5.9966645495e-05    1.0120000000e+05
    6.9941663241e-05    1.0120000000e+05
    7.9947407357e-05    1.0120000000e+05
    8.9936045697e-05    1.0120000000e+05
    9.9988181319e-05    1.0120000000e+05
    1.0997046775e-04    1.0120000000e+05
    1.1993796943e-04    1.0120000000e+05
    1.2994909775e-04    1.0120000000e+05
    1.3999878138e-04    1.0120000000e+05
    1.4993386867e-04    1.0120000000e+05
    1.5996623551e-04    1.0120000000e+05
    1.6994123871e-04    1.0120000000e+05
    1.7992685025e-04    1.0120000000e+05
    1.8999505846e-04    1.0120000000e+05
    1.9998353673e-04    1.0120000000e+05
    2.0996354579e-04    1.0120000000e+05
    2.1992817346e-04    1.0120000000e+05
    2.2995412291e-04    1.0120000000e+05
    2.3995389347e-04    1.0120000000e+05
    2.4992073304e-04    1.0120000000e+05
    2.5993480813e-04    1.0120000000e+05
    2.6999274269e-04    1.0120000000e+05
    2.7991310344e-04    1.0120000000e+05
    2.8995596222e-04    1.0120000000e+05
    2.9993831413e-04    1.0120000000e+05
    3.0994383269e-04    1.0120000000e+05
    3.1997205224e-04    1.0120000000e+05
    3.2992189517e-04    1.0120000000e+05
    3.3997153514e-04    1.0120000000e+05
    3.4991907887e-04    1.0120000000e+05
    3.5995655344e-04    1.0120000000e+05
    3.6998515134e-04    1.0120000000e+05
    3.7990286364e-04    1.0120000000e+05
    3.8990747998e-04    1.0120000000e+05
    3.9999830187e-04    1.0120000000e+05
    4.0997375618e-04    1.0120000000e+05
    4.1993003106e-04    1.0120000000e+05
    4.2997158016e-04    1.0120000000e+05
    4.3999397894e-04    1.0120000000e+05
    4.4999571401e-04    1.0120000000e+05
    4.5997451525e-04    1.0120000000e+05
    4.6992866555e-04    1.0120000000e+05
    4.7996567446e-04    1.0120000000e+05
    4.8997724662e-04    1.0120000000e+05
    4.9996183952e-04    1.0120000000e+05
    5.0991401076e-04    1.0120000000e+05
    5.1995040849e-04    1.0120000000e+05
    5.2995677106e-04    1.0120000000e+05
    5.3993123583e-04    1.0120000000e+05
    5.4998567794e-04    1.0120000000e+05
    5.5989029352e-04    1.0120000000e+05
    5.6999042863e-04    1.0120000000e+05
    5.7993910741e-04    1.0120000000e+05
    5.8996607549e-04    1.0120000000e+05
    5.9995427728e-04    1.0120000000e+05
    6.0989987105e-04    1.0120000000e+05
    6.1992515111e-04    1.0120000000e+05
    6.2990828883e-04    1.0120000000e+05
    6.3996913377e-04    1.0120000000e+05
    6.4998609014e-04    1.0120000000e+05
    6.5995490877e-04    1.0120000000e+05
    6.6987855826e-04    1.0120000000e+05
    6.7987822695e-04    1.0120000000e+05
    6.8995490437e-04    1.0120000000e+05
    6.9998227991e-04    1.0120000000e+05
    7.0995843271e-04    1.0120000000e+05
    7.1987870615e-04    1.0120000000e+05
    7.2987686144e-04    1.0120000000e+05
    7.3995115235e-04    1.0120000000e+05
    7.4997037882e-04    1.0120000000e+05
    7.5993250357e-04    1.0120000000e+05
    7.6996971620e-04    1.0120000000e+05
    7.7994784806e-04    1.0120000000e+05
    7.8999804100e-04    1.0120000000e+05
    7.9998985166e-04    1.0120000000e+05
    8.0991815776e-04    1.0120000000e+05
    8.1992032938e-04    1.0120000000e+05
    8.2999723963e-04    1.0120000000e+05
    8.3986687241e-04    1.0120000000e+05
    8.4995152429e-04    1.0120000000e+05
    8.5996801499e-04    1.0120000000e+05
    8.6991075659e-04    1.0120000000e+05
    8.7992992485e-04    1.0120000000e+05
    8.8987621712e-04    1.0120000000e+05
    8.9989521075e-04    1.0120000000e+05
    9.0998783708e-04    1.0120000000e+05
    9.1985485051e-04    1.0120000000e+05
    9.2994392617e-04    1.0120000000e+05
    9.3995488714e-04    1.0120000000e+05
    9.4988063211e-04    1.0120000000e+05
    9.5987867098e-04    1.0120000000e+05
    9.6995243803e-04    1.0120000000e+05
    9.7994261887e-04    1.0120000000e+05
    9.8984665237e-04    1.0120000000e+05
    9.9997967482e-04    1.0120000000e+05
    1.0098660132e-03    1.0120000000e+05
    1.0199829703e-03    1.0120000000e+05
    1.0298478883e-03    1.0120000000e+05
    1.0399450548e-03    1.0120000000e+05
    1.0499487398e-03    1.0120000000e+05
    1.0598538211e-03    1.0120000000e+05
    1.0699986015e-03    1.0120000000e+05
    1.0798793519e-03    1.0120000000e+05
    1.0899971239e-03    1.0120000000e+05
    1.0998452781e-03    1.0120000000e+05
    1.1099319672e-03    1.0120000000e+05
    1.1199159781e-03    1.0120000000e+05
    1.1299685575e-03    1.0120000000e+05
    1.1399151990e-03    1.0120000000e+05
    1.1499292450e-03    1.0120000000e+05
    1.1598342098e-03    1.0120000000e+05
    1.1699844617e-03    1.0120000000e+05
    1.1798444903e-03    1.0120000000e+05
    1.1899513192e-03    1.0120000000e+05
    1.1999412673e-03    1.0120000000e+05
    1.2099972228e-03    1.0120000000e+05
    1.2199402554e-03    1.0120000000e+05
    1.2299491791e-03    1.0120000000e+05
    1.2398376130e-03    1.0120000000e+05
    1.2499793665e-03    1.0120000000e+05
    1.2599992333e-03    1.0120000000e+05
    1.2698945357e-03    1.0120000000e+05
    1.2798542157e-03    1.0120000000e+05
    1.2898789719e-03    1.0120000000e+05
    1.2999696191e-03    1.0120000000e+05
    1.3099306962e-03    1.0120000000e+05
    1.3199565001e-03    1.0120000000e+05
    1.3298492413e-03    1.0120000000e+05
    1.3398056617e-03    1.0120000000e+05
    1.3498262269e-03    1.0120000000e+05
    1.3599118683e-03    1.0120000000e+05
    1.3698595576e-03    1.0120000000e+05
    1.3798711589e-03    1.0120000000e+05
    1.3899472542e-03    1.0120000000e+05
    1.3998810900e-03    1.0120000000e+05
    1.4098784886e-03    1.0120000000e+05
    1.4199400321e-03    1.0120000000e+05
    1.4298545429e-03    1.0120000000e+05
    1.4398322674e-03    1.0120000000e+05
    1.4498733217e-03    1.0120000000e+05
    1.4599767746e-03    1.0120000000e+05
    1.4699205058e-03    1.0120000000e+05
    1.4799286146e-03    1.0120000000e+05
    1.4897874789e-03    1.0120000000e+05
    1.4999312116e-03    1.0120000000e+05
    1.5099177836e-03    1.0120000000e+05
    1.5199676855e-03    1.0120000000e+05
    1.5298562357e-03    1.0120000000e+05
    1.5398063697e-03    1.0120000000e+05
    1.5498197172e-03    1.0120000000e+05
    1.5598962782e-03    1.0120000000e+05
    1.5698063653e-03    1.0120000000e+05
    1.5797776869e-03    1.0120000000e+05
    1.5898132697e-03    1.0120000000e+05
    1.5999119496e-03    1.0120000000e+05
    1.6098371707e-03    1.0120000000e+05
    1.6198244411e-03    1.0120000000e+05
    1.6298748087e-03    1.0120000000e+05
    1.6399889719e-03    1.0120000000e+05
    1.6499250196e-03    1.0120000000e+05
    1.6599247465e-03    1.0120000000e+05
    1.6699868720e-03    1.0120000000e+05
    1.6798642464e-03    1.0120000000e+05
    1.6898047179e-03    1.0120000000e+05
    1.6998063074e-03    1.0120000000e+05
    1.7098721582e-03    1.0120000000e+05
    1.7197473207e-03    1.0120000000e+05
    1.7299395986e-03    1.0120000000e+05
    1.7399408389e-03    1.0120000000e+05
    1.7497462686e-03    1.0120000000e+05
    1.7598728882e-03    1.0120000000e+05
    1.7698004376e-03    1.0120000000e+05
    1.7797840992e-03    1.0120000000e+05
    1.7898287624e-03    1.0120000000e+05
    1.7999446718e-03    1.0120000000e+05
    1.8098598812e-03    1.0120000000e+05
    1.8198370235e-03    1.0120000000e+05
    1.8298777286e-03    1.0120000000e+05
    1.8399821129e-03    1.0120000000e+05
    1.8498761347e-03    1.0120000000e+05
    1.8598319730e-03    1.0120000000e+05
    1.8698512577e-03    1.0120000000e+05
    1.8799345708e-03    1.0120000000e+05
    1.8897998380e-03    1.0120000000e+05
    1.8997271545e-03    1.0120000000e+05
    1.9097175682e-03    1.0120000000e+05
    1.9197718939e-03    1.0120000000e+05
    1.9298908301e-03    1.0120000000e+05
    1.9397835713e-03    1.0120000000e+05
    1.9497390604e-03    1.0120000000e+05
    1.9597585779e-03    1.0120000000e+05
    1.9698424730e-03    1.0120000000e+05
    1.9799920265e-03    1.0120000000e+05
    1.9899066538e-03    1.0120000000e+05
    1.9998846110e-03    1.0120000000e+05
    2.0099270623e-03    1.0120000000e+05
    2.0197278354e-03    1.0120000000e+05
    2.0298999734e-03    1.0120000000e+05
    2.0398281049e-03    1.0120000000e+05
    2.0498204976e-03    1.0120000000e+05
    2.0598780829e-03    1.0120000000e+05
    2.0696844440e-03    1.0120000000e+05
    2.0798714831e-03    1.0120000000e+05
    2.0898000803e-03    1.0120000000e+05
    2.0998001564e-03    1.0120000000e+05
    2.1098658908e-03    1.0120000000e+05
    2.1199986804e-03    1.0120000000e+05
    2.1298690699e-03    1.0120000000e+05
    2.1398039535e-03    1.0120000000e+05
    2.1498044953e-03    1.0120000000e+05
    2.1598713938e-03    1.0120000000e+05
    2.1696670447e-03    1.0120000000e+05
    2.1798680536e-03    1.0120000000e+05
    2.1897950210e-03    1.0120000000e+05
    2.1997881122e-03    1.0120000000e+05
    2.2098487243e-03    1.0120000000e+05
    2.2199773230e-03    1.0120000000e+05
    2.2298225667e-03    1.0120000000e+05
    2.2397332359e-03    1.0120000000e+05
    2.2497109603e-03    1.0120000000e+05
    2.2597564384e-03    1.0120000000e+05
    2.2698647808e-03    1.0120000000e+05
    2.2796841804e-03    1.0120000000e+05
    2.2899373434e-03    1.0120000000e+05
    2.2998927161e-03    1.0120000000e+05
    2.3099165410e-03    1.0120000000e+05
    2.3196348920e-03    1.0120000000e+05
    2.3297965527e-03    1.0120000000e+05
    2.3396497127e-03    1.0120000000e+05
    2.3499538656e-03    1.0120000000e+05
    2.3599467240e-03    1.0120000000e+05
    2.3696213029e-03    1.0120000000e+05
    2.3797531612e-03    1.0120000000e+05
    2.3899574298e-03    1.0120000000e+05
    2.3998341057e-03    1.0120000000e+05
    2.4097803980e-03    1.0120000000e+05
    2.4198023602e-03    1.0120000000e+05
    2.4298962671e-03    1.0120000000e+05
    2.4396558292e-03    1.0120000000e+05
    2.4498947896e-03    1.0120000000e+05
    2.4597959127e-03    1.0120000000e+05
    2.4697685149e-03    1.0120000000e+05
    2.4798135273e-03    1.0120000000e+05
    2.4899330456e-03    1.0120000000e+05
    2.4997012224e-03    1.0120000000e+05
    2.5099695195e-03    1.0120000000e+05
    2.5198752992e-03    1.0120000000e+05
    2.5298451073e-03    1.0120000000e+05
    2.5398603175e-03    1.0120000000e+05
    2.5499167386e-03    1.0120000000e+05
    2.5595652405e-03    1.0120000000e+05
    2.5696866214e-03    1.0120000000e+05
    2.5798161514e-03    1.0120000000e+05
    2.5899673346e-03    1.0120000000e+05
    2.5997022167e-03    1.0120000000e+05
    2.6099071838e-03    1.0120000000e+05
    2.6196478866e-03    1.0120000000e+05
    2.6298712473e-03    1.0120000000e+05
    2.6396310423e-03    1.0120000000e+05
    2.6498497464e-03    1.0120000000e+05
    2.6595834643e-03    1.0120000000e+05
    2.6698007714e-03    1.0120000000e+05
    2.6799957268e-03    1.0120000000e+05
    2.6897327043e-03    1.0120000000e+05
    2.6999246329e-03    1.0120000000e+05
    2.7096720878e-03    1.0120000000e+05
    2.7198602911e-03    1.0120000000e+05
    2.7296019252e-03    1.0120000000e+05
    2.7397775557e-03    1.0120000000e+05
    2.7499734424e-03    1.0120000000e+05
    2.7596990112e-03    1.0120000000e+05
    2.7698681224e-03    1.0120000000e+05
    2.7795890346e-03    1.0120000000e+05
    2.7898065746e-03    1.0120000000e+05
    2.7999209706e-03    1.0120000000e+05
    2.8095853049e-03    1.0120000000e+05
    2.8196962085e-03    1.0120000000e+05
    2.8298043180e-03    1.0120000000e+05
    2.8399715666e-03    1.0120000000e+05
    2.8497499879e-03    1.0120000000e+05
    2.8599556535e-03    1.0120000000e+05
    2.8697277885e-03    1.0120000000e+05
    2.8799735010e-03    1.0120000000e+05
    2.8898073360e-03    1.0120000000e+05
    2.8996281326e-03    1.0120000000e+05
    2.9099273961e-03    1.0120000000e+05
    2.9197703116e-03    1.0120000000e+05
    2.9296418652e-03    1.0120000000e+05
    2.9399967752e-03    1.0120000000e+05
    2.9498934746e-03    1.0120000000e+05
    2.9598018155e-03    1.0120000000e+05
    2.9697173741e-03    1.0120000000e+05
    2.9796410818e-03    1.0120000000e+05
    2.9899941292e-03    1.0120000000e+05
    2.9999059625e-03    1.0120000000e+05
    3.0098191928e-03    1.0120000000e+05
    3.0197156593e-03    1.0120000000e+05
    3.0295895413e-03    1.0120000000e+05
    3.0398960225e-03    1.0120000000e+05
    3.0497279949e-03    1.0120000000e+05
    3.0599739403e-03    1.0120000000e+05
    3.0697453767e-03    1.0120000000e+05
    3.0799196102e-03    1.0120000000e+05
    3.0896081589e-03    1.0120000000e+05
    3.0996804126e-03    1.0120000000e+05
    3.1096909661e-03    1.0120000000e+05
    3.1196414493e-03    1.0120000000e+05
    3.1299605034e-03    1.0120000000e+05
    3.1397868879e-03    1.0120000000e+05
    3.1499809120e-03    1.0120000000e+05
    3.1596913468e-03    1.0120000000e+05
    3.1697631348e-03    1.0120000000e+05
    3.1797739211e-03    1.0120000000e+05
    3.1897239387e-03    1.0120000000e+05
    3.1996143516e-03    1.0120000000e+05
    3.2098516822e-03    1.0120000000e+05
    3.2196214888e-03    1.0120000000e+05
    3.2297370490e-03    1.0120000000e+05
    3.2397906762e-03    1.0120000000e+05
    3.2497830689e-03    1.0120000000e+05
    3.2597142272e-03    1.0120000000e+05
    3.2699790318e-03    1.0120000000e+05
    3.2797881868e-03    1.0120000000e+05
    3.2899249345e-03    1.0120000000e+05
    3.2996144146e-03    1.0120000000e+05
    3.3096303232e-03    1.0120000000e+05
    3.3199659083e-03    1.0120000000e+05
    3.3298560884e-03    1.0120000000e+05
    3.3396854997e-03    1.0120000000e+05
    3.3498264384e-03    1.0120000000e+05
    3.3599042799e-03    1.0120000000e+05
    3.3699199557e-03    1.0120000000e+05
    3.3798723016e-03    1.0120000000e+05
    3.3897620160e-03    1.0120000000e+05
    3.3999523148e-03    1.0120000000e+05
    3.4097158350e-03    1.0120000000e+05
    3.4197741188e-03    1.0120000000e+05
    3.4297681414e-03    1.0120000000e+05
    3.4396981355e-03    1.0120000000e+05
    3.4499149770e-03    1.0120000000e+05
    3.4597145859e-03    1.0120000000e+05
    3.4697973169e-03    1.0120000000e+05
    3.4798125271e-03    1.0120000000e+05
    3.4897606820e-03    1.0120000000e+05
    3.4999812488e-03    1.0120000000e+05
    3.5097938962e-03    1.0120000000e+05
    3.5198754631e-03    1.0120000000e+05
    3.5298869479e-03    1.0120000000e+05
    3.5398290493e-03    1.0120000000e+05
    3.5497017670e-03    1.0120000000e+05
    3.5598312970e-03    1.0120000000e+05
    3.5698872525e-03    1.0120000000e+05
    3.5798700992e-03    1.0120000000e+05
    3.5897805355e-03    1.0120000000e+05
    3.5999349784e-03    1.0120000000e+05
    3.6096989643e-03    1.0120000000e+05
    3.6197027657e-03    1.0120000000e+05
    3.6299391650e-03    1.0120000000e+05
    3.6397883669e-03    1.0120000000e+05
    3.6498657428e-03    1.0120000000e+05
    3.6598630250e-03    1.0120000000e+05
    3.6697802134e-03    1.0120000000e+05
    3.6799146328e-03    1.0120000000e+05
    3.6899640691e-03    1.0120000000e+05
    3.6999289878e-03    1.0120000000e+05
    3.7098091561e-03    1.0120000000e+05
    3.7198918872e-03    1.0120000000e+05
    3.7298849784e-03    1.0120000000e+05
    3.7397888955e-03    1.0120000000e+05
    3.7498825695e-03    1.0120000000e+05
    3.7598814815e-03    1.0120000000e+05
    3.7697851658e-03    1.0120000000e+05
    3.7798653357e-03    1.0120000000e+05
    3.7898446899e-03    1.0120000000e+05
    3.7999891210e-03    1.0120000000e+05
    3.8097640499e-03    1.0120000000e+05
    3.8199571427e-03    1.0120000000e+05
    3.8297800347e-03    1.0120000000e+05
    3.8397489116e-03    1.0120000000e+05
    3.8498542272e-03    1.0120000000e+05
    3.8598389365e-03    1.0120000000e+05
    3.8699463475e-03    1.0120000000e+05
    3.8799245376e-03    1.0120000000e+05
    3.8897725753e-03    1.0120000000e+05
    3.8999593817e-03    1.0120000000e+05
    3.9099995047e-03    1.0120000000e+05
    3.9198920131e-03    1.0120000000e+05
    3.9298585616e-03    1.0120000000e+05
    3.9398870431e-03    1.0120000000e+05
    3.9499630220e-03    1.0120000000e+05
    3.9598592557e-03    1.0120000000e+05
    3.9699892513e-03    1.0120000000e+05
    3.9799143560e-03    1.0120000000e+05
    3.9898306131e-03    1.0120000000e+05
    3.9999131113e-03    1.0120000000e+05
    4.0099350736e-03    1.0120000000e+05
    4.0198722854e-03    1.0120000000e+05
    4.0298760869e-03    1.0120000000e+05
    4.0398975834e-03    1.0120000000e+05
    4.0498785675e-03    1.0120000000e+05
    4.0599098429e-03    1.0120000000e+05
    4.0698838420e-03    1.0120000000e+05
    4.0799416602e-03    1.0120000000e+05
    4.0899496526e-03    1.0120000000e+05
    4.0998961776e-03    1.0120000000e+05
    4.1099297814e-03    1.0120000000e+05
    4.1199126281e-03    1.0120000000e+05
    4.1299848817e-03    1.0120000000e+05
    4.1399695911e-03    1.0120000000e+05
    4.1499170475e-03    1.0120000000e+05
    4.1599818505e-03    1.0120000000e+05
    4.1699809954e-03    1.0120000000e+05
    4.1799489409e-03    1.0120000000e+05
    4.1899038479e-03    1.0120000000e+05
    4.1998825036e-03    1.0120000000e+05
    4.2098420672e-03    1.0120000000e+05
    4.2199231684e-03    1.0120000000e+05
    4.2299167253e-03    1.0120000000e+05
    4.2399070226e-03    1.0120000000e+05
    4.2499708943e-03    1.0120000000e+05
    4.2599891312e-03    1.0120000000e+05
    4.2698886245e-03    1.0120000000e+05
    4.2799054645e-03    1.0120000000e+05
    4.2899851687e-03    1.0120000000e+05
    4.2999726720e-03    1.0120000000e+05
    4.3098446913e-03    1.0120000000e+05
    4.3199607171e-03    1.0120000000e+05
    4.3299715035e-03    1.0120000000e+05
    4.3398477137e-03    1.0120000000e+05
    4.3499669991e-03    1.0120000000e+05
    4.3599656783e-03    1.0120000000e+05
    4.3698195368e-03    1.0120000000e+05
    4.3799160048e-03    1.0120000000e+05
    4.3898699805e-03    1.0120000000e+05
    4.3998905458e-03    1.0120000000e+05
    4.4099381194e-03    1.0120000000e+05
    4.4198529795e-03    1.0120000000e+05
    4.4299806468e-03    1.0120000000e+05
    4.4399905019e-03    1.0120000000e+05
    4.4498112984e-03    1.0120000000e+05
    4.4599091634e-03    1.0120000000e+05
    4.4698142447e-03    1.0120000000e+05
    4.4799861498e-03    1.0120000000e+05
    4.4899773784e-03    1.0120000000e+05
    4.4998005033e-03    1.0120000000e+05
    4.5098802075e-03    1.0120000000e+05
    4.5199715532e-03    1.0120000000e+05
    4.5299325138e-03    1.0120000000e+05
    4.5398795046e-03    1.0120000000e+05
    4.5499177650e-03    1.0120000000e+05
    4.5599332079e-03    1.0120000000e+05
    4.5698159374e-03    1.0120000000e+05
    4.5799179934e-03    1.0120000000e+05
    4.5898389071e-03    1.0120000000e+05
    4.5998306014e-03    1.0120000000e+05
    4.6097883023e-03    1.0120000000e+05
    4.6198558994e-03    1.0120000000e+05
    4.6298811212e-03    1.0120000000e+05
    4.6399752609e-03    1.0120000000e+05
    4.6498863958e-03    1.0120000000e+05
    4.6597896144e-03    1.0120000000e+05
    4.6697841026e-03    1.0120000000e+05
    4.6799727716e-03    1.0120000000e+05
    4.6898024157e-03    1.0120000000e+05
    4.6998555772e-03    1.0120000000e+05
    4.7099492513e-03    1.0120000000e+05
    4.7198636457e-03    1.0120000000e+05
    4.7297789715e-03    1.0120000000e+05
    4.7399797477e-03    1.0120000000e+05
    4.7499593347e-03    1.0120000000e+05
    4.7599799000e-03    1.0120000000e+05
    4.7698109411e-03    1.0120000000e+05
    4.7798762098e-03    1.0120000000e+05
    4.7899773344e-03    1.0120000000e+05
    4.7998735681e-03    1.0120000000e+05
    4.8097991385e-03    1.0120000000e+05
    4.8199715093e-03    1.0120000000e+05
    4.8299357295e-03    1.0120000000e+05
    4.8399358056e-03    1.0120000000e+05
    4.8499461263e-03    1.0120000000e+05
    4.8599778675e-03    1.0120000000e+05
    4.8698140308e-03    1.0120000000e+05
    4.8798881471e-03    1.0120000000e+05
    4.8899780959e-03    1.0120000000e+05
    4.8998715356e-03    1.0120000000e+05
    4.9097747542e-03    1.0120000000e+05
    4.9199173227e-03    1.0120000000e+05
    4.9298610538e-03    1.0120000000e+05
    4.9398182891e-03    1.0120000000e+05
    4.9497806467e-03    1.0120000000e+05
    4.9597686157e-03    1.0120000000e+05
    4.9697747454e-03    1.0120000000e+05
    4.9797841348e-03    1.0120000000e+05
    4.9898098223e-03    1.0120000000e+05
    4.9998573959e-03    1.0120000000e+05
    5.0099096261e-03    1.0120000000e+05
    5.0199679099e-03    1.0120000000e+05
    5.0298166461e-03    1.0120000000e+05
    5.0399033353e-03    1.0120000000e+05
    5.0499932840e-03    1.0120000000e+05
    5.0598629750e-03    1.0120000000e+05
    5.0699766725e-03    1.0120000000e+05
    5.0798570737e-03    1.0120000000e+05
    5.0899796188e-03    1.0120000000e+05
    5.0998725928e-03    1.0120000000e+05
    5.1097669639e-03    1.0120000000e+05
    5.1198983565e-03    1.0120000000e+05
    5.1297936589e-03    1.0120000000e+05
    5.1399259828e-03    1.0120000000e+05
    5.1498222165e-03    1.0120000000e+05
    5.1599550061e-03    1.0120000000e+05
    5.1698521711e-03    1.0120000000e+05
    5.1799854264e-03    1.0120000000e+05
    5.1898830570e-03    1.0120000000e+05
    5.1997802220e-03    1.0120000000e+05
    5.2099130116e-03    1.0120000000e+05
    5.2198101766e-03    1.0120000000e+05
    5.2299425006e-03    1.0120000000e+05
    5.2398391999e-03    1.0120000000e+05
    5.2499705926e-03    1.0120000000e+05
    5.2598663606e-03    1.0120000000e+05
    5.2699972875e-03    1.0120000000e+05
    5.2798916586e-03    1.0120000000e+05
    5.2897860296e-03    1.0120000000e+05
    5.2999155596e-03    1.0120000000e+05
    5.3098085336e-03    1.0120000000e+05
    5.3199366666e-03    1.0120000000e+05
    5.3298287094e-03    1.0120000000e+05
    5.3399554454e-03    1.0120000000e+05
    5.3498460911e-03    1.0120000000e+05
    5.3599718958e-03    1.0120000000e+05
    5.3698602132e-03    1.0120000000e+05
    5.3799836896e-03    1.0120000000e+05
    5.3898724727e-03    1.0120000000e+05
    5.3999931552e-03    1.0120000000e+05
    5.4098768160e-03    1.0120000000e+05
    5.4197665304e-03    1.0120000000e+05
    5.4298872128e-03    1.0120000000e+05
    5.4397694767e-03    1.0120000000e+05
    5.4499013349e-03    1.0120000000e+05
    5.4598050192e-03    1.0120000000e+05
    5.4699364118e-03    1.0120000000e+05
    5.4798452184e-03    1.0120000000e+05
    5.4897777736e-03    1.0120000000e+05
    5.4999315180e-03    1.0120000000e+05
    5.5098580196e-03    1.0120000000e+05
    5.5198101327e-03    1.0120000000e+05
    5.5299992673e-03    1.0120000000e+05
    5.5399406701e-03    1.0120000000e+05
    5.5499114096e-03    1.0120000000e+05
    5.5598975159e-03    1.0120000000e+05
    5.5698668584e-03    1.0120000000e+05
    5.5798483081e-03    1.0120000000e+05
    5.5898600258e-03    1.0120000000e+05
    5.5998661555e-03    1.0120000000e+05
    5.6098643690e-03    1.0120000000e+05
    5.6198863313e-03    1.0120000000e+05
    5.6299217977e-03    1.0120000000e+05
    5.6399554014e-03    1.0120000000e+05
    5.6499931961e-03    1.0120000000e+05
    5.6598102674e-03    1.0120000000e+05
    5.6698718108e-03    1.0120000000e+05
    5.6799412705e-03    1.0120000000e+05
    5.6897755712e-03    1.0120000000e+05
    5.6998557411e-03    1.0120000000e+05
    5.7099447586e-03    1.0120000000e+05
    5.7198060676e-03    1.0120000000e+05
    5.7299118489e-03    1.0120000000e+05
    5.7397731580e-03    1.0120000000e+05
    5.7498924434e-03    1.0120000000e+05
    5.7597826235e-03    1.0120000000e+05
    5.7699168101e-03    1.0120000000e+05
    5.7798097841e-03    1.0120000000e+05
    5.7899537496e-03    1.0120000000e+05
    5.7998700067e-03    1.0120000000e+05
    5.8097848669e-03    1.0120000000e+05
    5.8199428022e-03    1.0120000000e+05
    5.8298669755e-03    1.0120000000e+05
    5.8398069814e-03    1.0120000000e+05
    5.8499919251e-03    1.0120000000e+05
    5.8599379845e-03    1.0120000000e+05
    5.8698896319e-03    1.0120000000e+05
    5.8798533864e-03    1.0120000000e+05
    5.8898227289e-03    1.0120000000e+05
    5.8997874148e-03    1.0120000000e+05
    5.9097609483e-03    1.0120000000e+05
    5.9199845418e-03    1.0120000000e+05
    5.9299785644e-03    1.0120000000e+05
    5.9399669990e-03    1.0120000000e+05
    5.9499600902e-03    1.0120000000e+05
    5.9599662200e-03    1.0120000000e+05
    5.9699807316e-03    1.0120000000e+05
    5.9799989685e-03    1.0120000000e+05
    5.9897671454e-03    1.0120000000e+05
    5.9997932985e-03    1.0120000000e+05
    6.0098255053e-03    1.0120000000e+05
    6.0198642313e-03    1.0120000000e+05
    6.0298969038e-03    1.0120000000e+05
    6.0399342328e-03    1.0120000000e+05
    6.0499887913e-03    1.0120000000e+05
    6.0598012060e-03    1.0120000000e+05
    6.0698641464e-03    1.0120000000e+05
    6.0799187049e-03    1.0120000000e+05
    6.0899900272e-03    1.0120000000e+05
    6.0998178087e-03    1.0120000000e+05
    6.1098970473e-03    1.0120000000e+05
    6.1199758202e-03    1.0120000000e+05
    6.1298124492e-03    1.0120000000e+05
    6.1399098486e-03    1.0120000000e+05
    6.1499997973e-03    1.0120000000e+05
    6.1598555185e-03    1.0120000000e+05
    6.1699533835e-03    1.0120000000e+05
    6.1798174866e-03    1.0120000000e+05
    6.1899321154e-03    1.0120000000e+05
    6.1997948214e-03    1.0120000000e+05
    6.2099187635e-03    1.0120000000e+05
    6.2197903171e-03    1.0120000000e+05
    6.2299254350e-03    1.0120000000e+05
    6.2398044392e-03    1.0120000000e+05
    6.2499362975e-03    1.0120000000e+05
    6.2598329969e-03    1.0120000000e+05
    6.2699741684e-03    1.0120000000e+05
    6.2798759900e-03    1.0120000000e+05
    6.2897698954e-03    1.0120000000e+05
    6.2999278307e-03    1.0120000000e+05
    6.3098431565e-03    1.0120000000e+05
    6.3197580166e-03    1.0120000000e+05
    6.3299154863e-03    1.0120000000e+05
    6.3398238271e-03    1.0120000000e+05
    6.3497535884e-03    1.0120000000e+05
    6.3599376008e-03    1.0120000000e+05
    6.3698776066e-03    1.0120000000e+05
    6.3798166811e-03    1.0120000000e+05
    6.3897515647e-03    1.0120000000e+05
    6.3999355771e-03    1.0120000000e+05
    6.4098713920e-03    1.0120000000e+05
    6.4198113978e-03    1.0120000000e+05
    6.4297583885e-03    1.0120000000e+05
    6.4399521798e-03    1.0120000000e+05
    6.4498945139e-03    1.0120000000e+05
    6.4598349854e-03    1.0120000000e+05
    6.4697749913e-03    1.0120000000e+05
    6.4799604006e-03    1.0120000000e+05
    6.4899022691e-03    1.0120000000e+05
    6.4998543821e-03    1.0120000000e+05
    6.5098083578e-03    1.0120000000e+05
    6.5197604708e-03    1.0120000000e+05
    6.5299589187e-03    1.0120000000e+05
    6.5399077721e-03    1.0120000000e+05
    6.5498556942e-03    1.0120000000e+05
    6.5598036163e-03    1.0120000000e+05
    6.5699997358e-03    1.0120000000e+05
    6.5799485892e-03    1.0120000000e+05
    6.5898965113e-03    1.0120000000e+05
    6.5998453647e-03    1.0120000000e+05
    6.6097946838e-03    1.0120000000e+05
    6.6199945286e-03    1.0120000000e+05
    6.6299475729e-03    1.0120000000e+05
    6.6399001516e-03    1.0120000000e+05
    6.6498513333e-03    1.0120000000e+05
    6.6598020494e-03    1.0120000000e+05
    6.6697518341e-03    1.0120000000e+05
    6.6799498163e-03    1.0120000000e+05
    6.6898991354e-03    1.0120000000e+05
    6.6998484544e-03    1.0120000000e+05
    6.7097973078e-03    1.0120000000e+05
    6.7199948244e-03    1.0120000000e+05
    6.7299432121e-03    1.0120000000e+05
    6.7398911342e-03    1.0120000000e+05
    6.7498390563e-03    1.0120000000e+05
    6.7597869784e-03    1.0120000000e+05
    6.7699835636e-03    1.0120000000e+05
    6.7799314857e-03    1.0120000000e+05
    6.7898798734e-03    1.0120000000e+05
    6.7998291925e-03    1.0120000000e+05
    6.8097780459e-03    1.0120000000e+05
    6.8199755624e-03    1.0120000000e+05
    6.8299230188e-03    1.0120000000e+05
    6.8398690782e-03    1.0120000000e+05
    6.8498151377e-03    1.0120000000e+05
    6.8597602658e-03    1.0120000000e+05
    6.8699540570e-03    1.0120000000e+05
    6.8798996508e-03    1.0120000000e+05
    6.8898461759e-03    1.0120000000e+05
    6.8997931667e-03    1.0120000000e+05
    6.9099888206e-03    1.0120000000e+05
    6.9199358113e-03    1.0120000000e+05
    6.9298837334e-03    1.0120000000e+05
    6.9398321211e-03    1.0120000000e+05
    6.9497800432e-03    1.0120000000e+05
    6.9599756971e-03    1.0120000000e+05
    6.9699208252e-03    1.0120000000e+05
    6.9798659533e-03    1.0120000000e+05
    6.9898096845e-03    1.0120000000e+05
    6.9997538812e-03    1.0120000000e+05
    7.0099537261e-03    1.0120000000e+05
    7.0199077018e-03    1.0120000000e+05
    7.0298602805e-03    1.0120000000e+05
    7.0398114622e-03    1.0120000000e+05
    7.0497621782e-03    1.0120000000e+05
    7.0599606261e-03    1.0120000000e+05
    7.0699113421e-03    1.0120000000e+05
    7.0798662491e-03    1.0120000000e+05
    7.0898225531e-03    1.0120000000e+05
    7.0997774601e-03    1.0120000000e+05
    7.1099805646e-03    1.0120000000e+05
    7.1199340746e-03    1.0120000000e+05
    7.1298871189e-03    1.0120000000e+05
    7.1398434229e-03    1.0120000000e+05
    7.1498029865e-03    1.0120000000e+05
    7.1597611532e-03    1.0120000000e+05
    7.1699675173e-03    1.0120000000e+05
    7.1799242869e-03    1.0120000000e+05
    7.1898810565e-03    1.0120000000e+05
    7.1998429485e-03    1.0120000000e+05
    7.2098048404e-03    1.0120000000e+05
    7.2197658010e-03    1.0120000000e+05
    7.2299749590e-03    1.0120000000e+05
    7.2399354540e-03    1.0120000000e+05
    7.2498992085e-03    1.0120000000e+05
    7.2598634288e-03    1.0120000000e+05
    7.2698262520e-03    1.0120000000e+05
    7.2797890753e-03    1.0120000000e+05
    7.2897514328e-03    1.0120000000e+05
    7.2999661788e-03    1.0120000000e+05
    7.3099317960e-03    1.0120000000e+05
    7.3198964819e-03    1.0120000000e+05
    7.3298611678e-03    1.0120000000e+05
    7.3398267850e-03    1.0120000000e+05
    7.3497933336e-03    1.0120000000e+05
    7.3597594164e-03    1.0120000000e+05
    7.3699741624e-03    1.0120000000e+05
    7.3799397796e-03    1.0120000000e+05
    7.3899072595e-03    1.0120000000e+05
    7.3998742737e-03    1.0120000000e+05
    7.4098408222e-03    1.0120000000e+05
    7.4198073708e-03    1.0120000000e+05
    7.4297753163e-03    1.0120000000e+05
    7.4399914593e-03    1.0120000000e+05
    7.4499584734e-03    1.0120000000e+05
    7.4599254876e-03    1.0120000000e+05
    7.4698929675e-03    1.0120000000e+05
    7.4798604473e-03    1.0120000000e+05
    7.4898274615e-03    1.0120000000e+05
    7.4997944757e-03    1.0120000000e+05
    7.5097619556e-03    1.0120000000e+05
    7.5199785642e-03    1.0120000000e+05
    7.5299455784e-03    1.0120000000e+05
    7.5399121270e-03    1.0120000000e+05
    7.5498791412e-03    1.0120000000e+05
    7.5598456897e-03    1.0120000000e+05
    7.5698122382e-03    1.0120000000e+05
    7.5797787867e-03    1.0120000000e+05
    7.5899939984e-03    1.0120000000e+05
    7.5999600813e-03    1.0120000000e+05
    7.6099261642e-03    1.0120000000e+05
    7.6198917814e-03    1.0120000000e+05
    7.6298573986e-03    1.0120000000e+05
    7.6398225501e-03    1.0120000000e+05
    7.6497877017e-03    1.0120000000e+05
    7.6597537845e-03    1.0120000000e+05
    7.6699680649e-03    1.0120000000e+05
    7.6799336821e-03    1.0120000000e+05
    7.6898983680e-03    1.0120000000e+05
    7.6998639852e-03    1.0120000000e+05
    7.7098305337e-03    1.0120000000e+05
    7.7198008075e-03    1.0120000000e+05
    7.7297724783e-03    1.0120000000e+05
    7.7399937436e-03    1.0120000000e+05
    7.7499644831e-03    1.0120000000e+05
    7.7599347569e-03    1.0120000000e+05
    7.7699045651e-03    1.0120000000e+05
    7.7798739076e-03    1.0120000000e+05
    7.7898432501e-03    1.0120000000e+05
    7.7998125926e-03    1.0120000000e+05
    7.8097828664e-03    1.0120000000e+05
    7.8197540715e-03    1.0120000000e+05
    7.8299734741e-03    1.0120000000e+05
    7.8399442136e-03    1.0120000000e+05
    7.8499149531e-03    1.0120000000e+05
    7.8598847613e-03    1.0120000000e+05
    7.8698545694e-03    1.0120000000e+05
    7.8798243776e-03    1.0120000000e+05
    7.8897932544e-03    1.0120000000e+05
    7.8997621313e-03    1.0120000000e+05
    7.9099815339e-03    1.0120000000e+05
    7.9199513420e-03    1.0120000000e+05
    7.9299202189e-03    1.0120000000e+05
    7.9398900270e-03    1.0120000000e+05
    7.9498616979e-03    1.0120000000e+05
    7.9598380253e-03    1.0120000000e+05
    7.9698180780e-03    1.0120000000e+05
    7.9797981307e-03    1.0120000000e+05
    7.9897791147e-03    1.0120000000e+05
    7.9997591674e-03    1.0120000000e+05
    8.0099888146e-03    1.0120000000e+05
    8.0199679360e-03    1.0120000000e+05
    8.0299461260e-03    1.0120000000e+05
    8.0399243161e-03    1.0120000000e+05
    8.0499025062e-03    1.0120000000e+05
    8.0598806962e-03    1.0120000000e+05
    8.0698607489e-03    1.0120000000e+05
    8.0798408017e-03    1.0120000000e+05
    8.0898217857e-03    1.0120000000e+05
    8.0998009071e-03    1.0120000000e+05
    8.1097800285e-03    1.0120000000e+05
    8.1197591498e-03    1.0120000000e+05
    8.1299869344e-03    1.0120000000e+05
    8.1399660558e-03    1.0120000000e+05
    8.1499451771e-03    1.0120000000e+05
    8.1599242985e-03    1.0120000000e+05
    8.1699024886e-03    1.0120000000e+05
    8.1798806787e-03    1.0120000000e+05
    8.1898588687e-03    1.0120000000e+05
    8.1998361275e-03    1.0120000000e+05
    8.2098143175e-03    1.0120000000e+05
    8.2197915763e-03    1.0120000000e+05
    8.2297688350e-03    1.0120000000e+05
    8.2399956882e-03    1.0120000000e+05
    8.2499720156e-03    1.0120000000e+05
    8.2599492744e-03    1.0120000000e+05
    8.2699265331e-03    1.0120000000e+05
    8.2799047232e-03    1.0120000000e+05
    8.2898857072e-03    1.0120000000e+05
    8.2998648286e-03    1.0120000000e+05
    8.3098486066e-03    1.0120000000e+05
    8.3198342472e-03    1.0120000000e+05
    8.3298254758e-03    1.0120000000e+05
    8.3398185670e-03    1.0120000000e+05
    8.3498125896e-03    1.0120000000e+05
    8.3598140627e-03    1.0120000000e+05
    8.3698285744e-03    1.0120000000e+05
    8.3798505366e-03    1.0120000000e+05
    8.3898715675e-03    1.0120000000e+05
    8.3998935297e-03    1.0120000000e+05
    8.4099303931e-03    1.0120000000e+05
    8.4199812263e-03    1.0120000000e+05
    8.4297824651e-03    1.0120000000e+05
    8.4398342296e-03    1.0120000000e+05
    8.4498934448e-03    1.0120000000e+05
    8.4599638358e-03    1.0120000000e+05
    8.4697939456e-03    1.0120000000e+05
    8.4798801690e-03    1.0120000000e+05
    8.4899663925e-03    1.0120000000e+05
    8.4998086095e-03    1.0120000000e+05
    8.5099171847e-03    1.0120000000e+05
    8.5197789595e-03    1.0120000000e+05
    8.5299005732e-03    1.0120000000e+05
    8.5397725925e-03    1.0120000000e+05
    8.5499053821e-03    1.0120000000e+05
    8.5597950965e-03    1.0120000000e+05
    8.5699446499e-03    1.0120000000e+05
    8.5798436776e-03    1.0120000000e+05
    8.5897529498e-03    1.0120000000e+05
    8.5999192670e-03    1.0120000000e+05
    8.6098378524e-03    1.0120000000e+05
    8.6197629571e-03    1.0120000000e+05
    8.6299516261e-03    1.0120000000e+05
    8.6398888379e-03    1.0120000000e+05
    8.6498362944e-03    1.0120000000e+05
    8.6597818881e-03    1.0120000000e+05
    8.6699901149e-03    1.0120000000e+05
    8.6799524724e-03    1.0120000000e+05
    8.6899250746e-03    1.0120000000e+05
    8.6999014020e-03    1.0120000000e+05
    8.7098842487e-03    1.0120000000e+05
    8.7198633701e-03    1.0120000000e+05
    8.7298536673e-03    1.0120000000e+05
    8.7398532778e-03    1.0120000000e+05
    8.7498566136e-03    1.0120000000e+05
    8.7598627433e-03    1.0120000000e+05
    8.7698744610e-03    1.0120000000e+05
    8.7798843160e-03    1.0120000000e+05
    8.7899100035e-03    1.0120000000e+05
    8.7999450043e-03    1.0120000000e+05
    8.8099790737e-03    1.0120000000e+05
    8.8197598234e-03    1.0120000000e+05
    8.8298050687e-03    1.0120000000e+05
    8.8398512453e-03    1.0120000000e+05
    8.8499076664e-03    1.0120000000e+05
    8.8599724695e-03    1.0120000000e+05
    8.8697783649e-03    1.0120000000e+05
    8.8798496872e-03    1.0120000000e+05
    8.8899275288e-03    1.0120000000e+05
    8.8997492567e-03    1.0120000000e+05
    8.9098373428e-03    1.0120000000e+05
    8.9199300855e-03    1.0120000000e+05
    8.9297601953e-03    1.0120000000e+05
    8.9398622513e-03    1.0120000000e+05
    8.9499689639e-03    1.0120000000e+05
    8.9598177001e-03    1.0120000000e+05
    8.9699365199e-03    1.0120000000e+05
    8.9797964320e-03    1.0120000000e+05
    8.9899096638e-03    1.0120000000e+05
    8.9997798204e-03    1.0120000000e+05
    9.0099163353e-03    1.0120000000e+05
    9.0197939426e-03    1.0120000000e+05
    9.0299425647e-03    1.0120000000e+05
    9.0398285538e-03    1.0120000000e+05
    9.0499697253e-03    1.0120000000e+05
    9.0598678216e-03    1.0120000000e+05
    9.0697705746e-03    1.0120000000e+05
    9.0799340978e-03    1.0120000000e+05
    9.0898480266e-03    1.0120000000e+05
    9.0997582301e-03    1.0120000000e+05
    9.1099282727e-03    1.0120000000e+05
    9.1198515147e-03    1.0120000000e+05
    9.1297803447e-03    1.0120000000e+05
    9.1399671510e-03    1.0120000000e+05
    9.1499043629e-03    1.0120000000e+05
    9.1598359868e-03    1.0120000000e+05
    9.1697685421e-03    1.0120000000e+05
    9.1799804941e-03    1.0120000000e+05
    9.1899307445e-03    1.0120000000e+05
    9.1998809949e-03    1.0120000000e+05
    9.2098414898e-03    1.0120000000e+05
    9.2197982594e-03    1.0120000000e+05
    9.2297522351e-03    1.0120000000e+05
    9.2399856076e-03    1.0120000000e+05
    9.2499582097e-03    1.0120000000e+05
    9.2599326745e-03    1.0120000000e+05
    9.2699155211e-03    1.0120000000e+05
    9.2798955739e-03    1.0120000000e+05
    9.2898737639e-03    1.0120000000e+05
    9.2998659238e-03    1.0120000000e+05
    9.3098580837e-03    1.0120000000e+05
    9.3198539689e-03    1.0120000000e+05
    9.3298610300e-03    1.0120000000e+05
    9.3398680910e-03    1.0120000000e+05
    9.3498751521e-03    1.0120000000e+05
    9.3598878011e-03    1.0120000000e+05
    9.3699013814e-03    1.0120000000e+05
    9.3799168244e-03    1.0120000000e+05
    9.3899443746e-03    1.0120000000e+05
    9.3999737874e-03    1.0120000000e+05
    9.4097424299e-03    1.0120000000e+05
    9.4197792932e-03    1.0120000000e+05
    9.4298152253e-03    1.0120000000e+05
    9.4398502260e-03    1.0120000000e+05
    9.4498936087e-03    1.0120000000e+05
    9.4599379227e-03    1.0120000000e+05
    9.4699831679e-03    1.0120000000e+05
    9.4797750935e-03    1.0120000000e+05
    9.4898333773e-03    1.0120000000e+05
    9.4998944551e-03    1.0120000000e+05
    9.5099601895e-03    1.0120000000e+05
    9.5197604969e-03    1.0120000000e+05
    9.5298280939e-03    1.0120000000e+05
    9.5399022102e-03    1.0120000000e+05
    9.5499772578e-03    1.0120000000e+05
    9.5597906038e-03    1.0120000000e+05
    9.5698758960e-03    1.0120000000e+05
    9.5799630508e-03    1.0120000000e+05
    9.5897847787e-03    1.0120000000e+05
    9.5998756588e-03    1.0120000000e+05
    9.6099702641e-03    1.0120000000e+05
    9.6198031679e-03    1.0120000000e+05
    9.6299070865e-03    1.0120000000e+05
    9.6397465095e-03    1.0120000000e+05
    9.6498541534e-03    1.0120000000e+05
    9.6599664539e-03    1.0120000000e+05
    9.6698123962e-03    1.0120000000e+05
    9.6799274907e-03    1.0120000000e+05
    9.6897836775e-03    1.0120000000e+05
    9.6999099478e-03    1.0120000000e+05
    9.7097726539e-03    1.0120000000e+05
    9.7199035808e-03    1.0120000000e+05
    9.7297700122e-03    1.0120000000e+05
    9.7399055958e-03    1.0120000000e+05
    9.7497766837e-03    1.0120000000e+05
    9.7599206492e-03    1.0120000000e+05
    9.7698019817e-03    1.0120000000e+05
    9.7799524665e-03    1.0120000000e+05
    9.7898375243e-03    1.0120000000e+05
    9.7999898717e-03    1.0120000000e+05
    9.8098767921e-03    1.0120000000e+05
    9.8197683692e-03    1.0120000000e+05
    9.8299318925e-03    1.0120000000e+05
    9.8398309201e-03    1.0120000000e+05
    9.8497346044e-03    1.0120000000e+05
    9.8599102348e-03    1.0120000000e+05
    9.8698185757e-03    1.0120000000e+05
    9.8799970001e-03    1.0120000000e+05
    9.8899109289e-03    1.0120000000e+05
    9.8998276517e-03    1.0120000000e+05
    9.9097480997e-03    1.0120000000e+05
    9.9199377000e-03    1.0120000000e+05
    9.9298628047e-03    1.0120000000e+05
    9.9397907034e-03    1.0120000000e+05
    9.9499886855e-03    1.0120000000e+05
    9.9599212408e-03    1.0120000000e+05
    9.9698575214e-03    1.0120000000e+05
    9.9797975272e-03    1.0120000000e+05
    9.9897412583e-03    1.0120000000e+05
    9.9999541417e-03    1.0120000000e+05
    1.0009901598e-02    1.0120000000e+05
    1.0019854642e-02    1.0120000000e+05
    1.0029809549e-02    1.0120000000e+05
    1.0039763525e-02    1.0120000000e+05
    1.0049989447e-02    1.0120000000e+05
    1.0059950873e-02    1.0120000000e+05
    1.0069917887e-02    1.0120000000e+05
    1.0079887696e-02    1.0120000000e+05
    1.0089859366e-02    1.0120000000e+05
    1.0099834763e-02    1.0120000000e+05
    1.0109812021e-02    1.0120000000e+05
    1.0119789280e-02    1.0120000000e+05
    1.0129768401e-02    1.0120000000e+05
    1.0139754973e-02    1.0120000000e+05
    1.0149746202e-02    1.0120000000e+05
    1.0159738362e-02    1.0120000000e+05
    1.0169733316e-02    1.0120000000e+05
    1.0179999284e-02    1.0120000000e+05
    1.0189998895e-02    1.0120000000e+05
    1.0199999437e-02    1.0120000000e+05
    1.0209733620e-02    1.0120000000e+05
    1.0219743475e-02    1.0120000000e+05
    1.0229758918e-02    1.0120000000e+05
    1.0239774361e-02    1.0120000000e+05
    1.0249791667e-02    1.0120000000e+05
    1.0259812698e-02    1.0120000000e+05
    1.0269837454e-02    1.0120000000e+05
    1.0279865935e-02    1.0120000000e+05
    1.0289895348e-02    1.0120000000e+05
    1.0299929418e-02    1.0120000000e+05
    1.0309968144e-02    1.0120000000e+05
    1.0319735855e-02    1.0120000000e+05
    1.0329774581e-02    1.0120000000e+05
    1.0339817964e-02    1.0120000000e+05
    1.0349867865e-02    1.0120000000e+05
    1.0359920561e-02    1.0120000000e+05
    1.0369976982e-02    1.0120000000e+05
    1.0379763320e-02    1.0120000000e+05
    1.0389825329e-02    1.0120000000e+05
    1.0399891995e-02    1.0120000000e+05
    1.0409957729e-02    1.0120000000e+05
    1.0419754311e-02    1.0120000000e+05
    1.0429830290e-02    1.0120000000e+05
    1.0439909995e-02    1.0120000000e+05
    1.0449991561e-02    1.0120000000e+05
    1.0459803976e-02    1.0120000000e+05
    1.0469892994e-02    1.0120000000e+05
    1.0479983874e-02    1.0120000000e+05
    1.0489800014e-02    1.0120000000e+05
    1.0499889962e-02    1.0120000000e+05
    1.0509989224e-02    1.0120000000e+05
    1.0519823059e-02    1.0120000000e+05
    1.0529936291e-02    1.0120000000e+05
    1.0539784096e-02    1.0120000000e+05
    1.0549910367e-02    1.0120000000e+05
    1.0559764691e-02    1.0120000000e+05
    1.0569891892e-02    1.0120000000e+05
    1.0579744354e-02    1.0120000000e+05
    1.0589868762e-02    1.0120000000e+05
    1.0599991307e-02    1.0120000000e+05
    1.0609840043e-02    1.0120000000e+05
    1.0619965382e-02    1.0120000000e+05
    1.0629820637e-02    1.0120000000e+05
    1.0639950633e-02    1.0120000000e+05
    1.0649804957e-02    1.0120000000e+05
    1.0659932159e-02    1.0120000000e+05
    1.0669785552e-02    1.0120000000e+05
    1.0679913685e-02    1.0120000000e+05
    1.0689768940e-02    1.0120000000e+05
    1.0699898005e-02    1.0120000000e+05
    1.0709754191e-02    1.0120000000e+05
    1.0719886050e-02    1.0120000000e+05
    1.0729742236e-02    1.0120000000e+05
    1.0739868507e-02    1.0120000000e+05
    1.0749998502e-02    1.0120000000e+05
    1.0759864002e-02    1.0120000000e+05
    1.0769732296e-02    1.0120000000e+05
    1.0779878125e-02    1.0120000000e+05
    1.0789753869e-02    1.0120000000e+05
    1.0799905285e-02    1.0120000000e+05
    1.0809782892e-02    1.0120000000e+05
    1.0819934309e-02    1.0120000000e+05
    1.0829810053e-02    1.0120000000e+05
    1.0839957744e-02    1.0120000000e+05
    1.0849831626e-02    1.0120000000e+05
    1.0859978385e-02    1.0120000000e+05
    1.0869850405e-02    1.0120000000e+05
    1.0879999027e-02    1.0120000000e+05
    1.0889873840e-02    1.0120000000e+05
    1.0899750516e-02    1.0120000000e+05
    1.0909900069e-02    1.0120000000e+05
    1.0919773951e-02    1.0120000000e+05
    1.0929920711e-02    1.0120000000e+05
    1.0939792730e-02    1.0120000000e+05
    1.0949939489e-02    1.0120000000e+05
    1.0959811509e-02    1.0120000000e+05
    1.0969957337e-02    1.0120000000e+05
    1.0979830287e-02    1.0120000000e+05
    1.0989976116e-02    1.0120000000e+05
    1.0999847203e-02    1.0120000000e+05
    1.1009991169e-02    1.0120000000e+05
    1.1019860394e-02    1.0120000000e+05
    1.1029729620e-02    1.0120000000e+05
    1.1039872654e-02    1.0120000000e+05
    1.1049740948e-02    1.0120000000e+05
    1.1059883982e-02    1.0120000000e+05
    1.1069751345e-02    1.0120000000e+05
    1.1079892516e-02    1.0120000000e+05
    1.1089758016e-02    1.0120000000e+05
    1.1099897325e-02    1.0120000000e+05
    1.1109762825e-02    1.0120000000e+05
    1.1119902134e-02    1.0120000000e+05
    1.1129768565e-02    1.0120000000e+05
    1.1139907874e-02    1.0120000000e+05
    1.1149771512e-02    1.0120000000e+05
    1.1159908958e-02    1.0120000000e+05
    1.1169772595e-02    1.0120000000e+05
    1.1179910041e-02    1.0120000000e+05
    1.1189776473e-02    1.0120000000e+05
    1.1199918576e-02    1.0120000000e+05
    1.1209785007e-02    1.0120000000e+05
    1.1219925247e-02    1.0120000000e+05
    1.1229792610e-02    1.0120000000e+05
    1.1239937507e-02    1.0120000000e+05
    1.1249808595e-02    1.0120000000e+05
    1.1259958148e-02    1.0120000000e+05
    1.1269838549e-02    1.0120000000e+05
    1.1279995553e-02    1.0120000000e+05
    1.1289880611e-02    1.0120000000e+05
    1.1299763806e-02    1.0120000000e+05
    1.1309919879e-02    1.0120000000e+05
    1.1319799349e-02    1.0120000000e+05
    1.1329952627e-02    1.0120000000e+05
    1.1339830235e-02    1.0120000000e+05
    1.1349982582e-02    1.0120000000e+05
    1.1359860189e-02    1.0120000000e+05
    1.1369739659e-02    1.0120000000e+05
    1.1379895732e-02    1.0120000000e+05
    1.1389779858e-02    1.0120000000e+05
    1.1399938725e-02    1.0120000000e+05
    1.1409822851e-02    1.0120000000e+05
    1.1419979855e-02    1.0120000000e+05
    1.1429861188e-02    1.0120000000e+05
    1.1439742520e-02    1.0120000000e+05
    1.1449896730e-02    1.0120000000e+05
    1.1459776200e-02    1.0120000000e+05
    1.1469930410e-02    1.0120000000e+05
    1.1479808949e-02    1.0120000000e+05
    1.1489962228e-02    1.0120000000e+05
    1.1499839835e-02    1.0120000000e+05
    1.1509991251e-02    1.0120000000e+05
    1.1519867927e-02    1.0120000000e+05
    1.1529742740e-02    1.0120000000e+05
    1.1539892294e-02    1.0120000000e+05
    1.1549767107e-02    1.0120000000e+05
    1.1559915729e-02    1.0120000000e+05
    1.1569789611e-02    1.0120000000e+05
    1.1579937302e-02    1.0120000000e+05
    1.1589810252e-02    1.0120000000e+05
    1.1599956080e-02    1.0120000000e+05
    1.1609829031e-02    1.0120000000e+05
    1.1619974859e-02    1.0120000000e+05
    1.1629845947e-02    1.0120000000e+05
    1.1639989913e-02    1.0120000000e+05
    1.1649860069e-02    1.0120000000e+05
    1.1659730226e-02    1.0120000000e+05
    1.1669873260e-02    1.0120000000e+05
    1.1679741554e-02    1.0120000000e+05
    1.1689884588e-02    1.0120000000e+05
    1.1699751951e-02    1.0120000000e+05
    1.1709894985e-02    1.0120000000e+05
    1.1719763279e-02    1.0120000000e+05
    1.1729906313e-02    1.0120000000e+05
    1.1739774607e-02    1.0120000000e+05
    1.1749918573e-02    1.0120000000e+05
    1.1759787798e-02    1.0120000000e+05
    1.1769936420e-02    1.0120000000e+05
    1.1779828928e-02    1.0120000000e+05
    1.1789740063e-02    1.0120000000e+05
    1.1799952947e-02    1.0120000000e+05
    1.1809918098e-02    1.0120000000e+05
    1.1819919571e-02    1.0120000000e+05
    1.1829962954e-02    1.0120000000e+05
    1.1839768849e-02    1.0120000000e+05
    1.1849895120e-02    1.0120000000e+05
    1.1859779246e-02    1.0120000000e+05
    1.1869979091e-02    1.0120000000e+05
    1.1879923753e-02    1.0120000000e+05
    1.1889887042e-02    1.0120000000e+05
    1.1899867095e-02    1.0120000000e+05
    1.1909858324e-02    1.0120000000e+05
    1.1919862591e-02    1.0120000000e+05
    1.1929881759e-02    1.0120000000e+05
    1.1939922348e-02    1.0120000000e+05
    1.1949991807e-02    1.0120000000e+05
    1.1959807016e-02    1.0120000000e+05
    1.1969950981e-02    1.0120000000e+05
    1.1979844421e-02    1.0120000000e+05
    1.1989773251e-02    1.0120000000e+05
    1.1999734677e-02    1.0120000000e+05
    1.2009714730e-02    1.0120000000e+05
    1.2019999325e-02    1.0120000000e+05
    1.2029994279e-02    1.0120000000e+05
    1.2039995752e-02    1.0120000000e+05
    1.2049711309e-02    1.0120000000e+05
    1.2059737928e-02    1.0120000000e+05
    1.2069790624e-02    1.0120000000e+05
    1.2079875916e-02    1.0120000000e+05
    1.2089991942e-02    1.0120000000e+05
    1.2099835090e-02    1.0120000000e+05
    1.2109997682e-02    1.0120000000e+05
    1.2119874358e-02    1.0120000000e+05
    1.2129758485e-02    1.0120000000e+05
    1.2139957398e-02    1.0120000000e+05
    1.2149868533e-02    1.0120000000e+05
    1.2159798294e-02    1.0120000000e+05
    1.2169747613e-02    1.0120000000e+05
    1.2179712765e-02    1.0120000000e+05
    1.2189987116e-02    1.0120000000e+05
    1.2199973688e-02    1.0120000000e+05
    1.2209984474e-02    1.0120000000e+05
    1.2219749391e-02    1.0120000000e+05
    1.2229929678e-02    1.0120000000e+05
    1.2239959091e-02    1.0120000000e+05
    1.2249852531e-02    1.0120000000e+05
    1.2259935960e-02    1.0120000000e+05
    1.2269881554e-02    1.0120000000e+05
    1.2279671617e-02    1.0120000000e+05
    1.2289976701e-02    1.0120000000e+05
    1.2299756519e-02    1.0120000000e+05
    1.2309688143e-02    1.0120000000e+05
    1.2319770642e-02    1.0120000000e+05
    1.2329999357e-02    1.0120000000e+05
    1.2339627370e-02    1.0120000000e+05
    1.2349756435e-02    1.0120000000e+05
    1.2359634973e-02    1.0120000000e+05
    1.2369634584e-02    1.0120000000e+05
    1.2379753403e-02    1.0120000000e+05
    1.2389992364e-02    1.0120000000e+05
    1.2399949133e-02    1.0120000000e+05
    1.2409611605e-02    1.0120000000e+05
    1.2419782579e-02    1.0120000000e+05
    1.2429647148e-02    1.0120000000e+05
    1.2439603917e-02    1.0120000000e+05
    1.2449658476e-02    1.0120000000e+05
    1.2459811755e-02    1.0120000000e+05
    1.2469636276e-02    1.0120000000e+05
    1.2479986995e-02    1.0120000000e+05
    1.2489567511e-02    1.0120000000e+05
    1.2499675155e-02    1.0120000000e+05
    1.2509863824e-02    1.0120000000e+05
    1.2519680895e-02    1.0120000000e+05
    1.2529566884e-02    1.0120000000e+05
    1.2539971620e-02    1.0120000000e+05
    1.2549977750e-02    1.0120000000e+05
    1.2559568509e-02    1.0120000000e+05
    1.2569646351e-02    1.0120000000e+05
    1.2579753064e-02    1.0120000000e+05
    1.2589897029e-02    1.0120000000e+05
    1.2599608861e-02    1.0120000000e+05
    1.2609818019e-02    1.0120000000e+05
    1.2619601563e-02    1.0120000000e+05
    1.2629898265e-02    1.0120000000e+05
    1.2639761902e-02    1.0120000000e+05
    1.2649659999e-02    1.0120000000e+05
    1.2659607455e-02    1.0120000000e+05
    1.2669580989e-02    1.0120000000e+05
    1.2679599226e-02    1.0120000000e+05
    1.2689677998e-02    1.0120000000e+05
    1.2699768879e-02    1.0120000000e+05
    1.2709871866e-02    1.0120000000e+05
    1.2719570659e-02    1.0120000000e+05
    1.2729778886e-02    1.0120000000e+05
    1.2739506550e-02    1.0120000000e+05
    1.2749810703e-02    1.0120000000e+05
    1.2759598903e-02    1.0120000000e+05
    1.2769981287e-02    1.0120000000e+05
    1.2779839337e-02    1.0120000000e+05
    1.2789767236e-02    1.0120000000e+05
    1.2799723074e-02    1.0120000000e+05
    1.2809699401e-02    1.0120000000e+05
    1.2819699012e-02    1.0120000000e+05
    1.2829789892e-02    1.0120000000e+05
    1.2839864008e-02    1.0120000000e+05
    1.2849922292e-02    1.0120000000e+05
    1.2859539129e-02    1.0120000000e+05
    1.2869718485e-02    1.0120000000e+05
    1.2879896909e-02    1.0120000000e+05
    1.2889636680e-02    1.0120000000e+05
    1.2899928726e-02    1.0120000000e+05
    1.2909752317e-02    1.0120000000e+05
    1.2919513509e-02    1.0120000000e+05
    1.2929855846e-02    1.0120000000e+05
    1.2939761393e-02    1.0120000000e+05
    1.2949655764e-02    1.0120000000e+05
    1.2959630229e-02    1.0120000000e+05
    1.2969546020e-02    1.0120000000e+05
    1.2979991734e-02    1.0120000000e+05
    1.2989975512e-02    1.0120000000e+05
    1.2999982573e-02    1.0120000000e+05
    1.3009977527e-02    1.0120000000e+05
    1.3019520789e-02    1.0120000000e+05
    1.3029617257e-02    1.0120000000e+05
    1.3039735146e-02    1.0120000000e+05
    1.3049814850e-02    1.0120000000e+05
    1.3059931807e-02    1.0120000000e+05
    1.3069548644e-02    1.0120000000e+05
    1.3079737313e-02    1.0120000000e+05
    1.3089922257e-02    1.0120000000e+05
    1.3099622913e-02    1.0120000000e+05
    1.3109852560e-02    1.0120000000e+05
    1.3119594194e-02    1.0120000000e+05
    1.3129879721e-02    1.0120000000e+05
    1.3139663264e-02    1.0120000000e+05
    1.3149950653e-02    1.0120000000e+05
    1.3159734197e-02    1.0120000000e+05
    1.3169587590e-02    1.0120000000e+05
    1.3179856353e-02    1.0120000000e+05
    1.3189479709e-02    1.0120000000e+05
    1.3199501671e-02    1.0120000000e+05
    1.3209852390e-02    1.0120000000e+05
    1.3219934888e-02    1.0120000000e+05
    1.3229709119e-02    1.0120000000e+05
    1.3239654712e-02    1.0120000000e+05
    1.3249735348e-02    1.0120000000e+05
    1.3259918429e-02    1.0120000000e+05
    1.3269746676e-02    1.0120000000e+05
    1.3279635459e-02    1.0120000000e+05
    1.3289937750e-02    1.0120000000e+05
    1.3299822807e-02    1.0120000000e+05
    1.3309656642e-02    1.0120000000e+05
    1.3319740072e-02    1.0120000000e+05
    1.3329980895e-02    1.0120000000e+05
    1.3339976780e-02    1.0120000000e+05
    1.3349967077e-02    1.0120000000e+05
    1.3359840028e-02    1.0120000000e+05
    1.3369960710e-02    1.0120000000e+05
    1.3379840180e-02    1.0120000000e+05
    1.3389804401e-02    1.0120000000e+05
    1.3399869204e-02    1.0120000000e+05
    1.3409896754e-02    1.0120000000e+05
    1.3419995084e-02    1.0120000000e+05
    1.3429882005e-02    1.0120000000e+05
    1.3439922594e-02    1.0120000000e+05
    1.3449981809e-02    1.0120000000e+05
    1.3459903188e-02    1.0120000000e+05
    1.3469976373e-02    1.0120000000e+05
    1.3479866087e-02    1.0120000000e+05
    1.3489856385e-02    1.0120000000e+05
    1.3499934226e-02    1.0120000000e+05
    1.3509877026e-02    1.0120000000e+05
    1.3519854285e-02    1.0120000000e+05
    1.3529855758e-02    1.0120000000e+05
    1.3539831154e-02    1.0120000000e+05
    1.3549968600e-02    1.0120000000e+05
    1.3559792191e-02    1.0120000000e+05
    1.3569950126e-02    1.0120000000e+05
    1.3579961844e-02    1.0120000000e+05
    1.3589830138e-02    1.0120000000e+05
    1.3599973172e-02    1.0120000000e+05
    1.3609970920e-02    1.0120000000e+05
    1.3619999401e-02    1.0120000000e+05
    1.3629860245e-02    1.0120000000e+05
    1.3639987446e-02    1.0120000000e+05
    1.3649924658e-02    1.0120000000e+05
    1.3659892604e-02    1.0120000000e+05
    1.3669898733e-02    1.0120000000e+05
    1.3679933734e-02    1.0120000000e+05
    1.3689993881e-02    1.0120000000e+05
    1.3699866831e-02    1.0120000000e+05
    1.3709967956e-02    1.0120000000e+05
    1.3719900511e-02    1.0120000000e+05
    1.3729809783e-02    1.0120000000e+05
    1.3739785179e-02    1.0120000000e+05
    1.3749976642e-02    1.0120000000e+05
    1.3759991154e-02    1.0120000000e+05
    1.3769996352e-02    1.0120000000e+05
    1.3779809698e-02    1.0120000000e+05
    1.3789879158e-02    1.0120000000e+05
    1.3799951412e-02    1.0120000000e+05
    1.3809827156e-02    1.0120000000e+05
    1.3819952495e-02    1.0120000000e+05
    1.3829864562e-02    1.0120000000e+05
    1.3839790598e-02    1.0120000000e+05
    1.3849991374e-02    1.0120000000e+05
    1.3859954663e-02    1.0120000000e+05
    1.3869940303e-02    1.0120000000e+05
    1.3879957609e-02    1.0120000000e+05
    1.3889979571e-02    1.0120000000e+05
    1.3899771497e-02    1.0120000000e+05
    1.3909837231e-02    1.0120000000e+05
    1.3919912279e-02    1.0120000000e+05
    1.3929988258e-02    1.0120000000e+05
    1.3939855620e-02    1.0120000000e+05
    1.3949978165e-02    1.0120000000e+05
    1.3959854841e-02    1.0120000000e+05
    1.3969757594e-02    1.0120000000e+05
    1.3979926705e-02    1.0120000000e+05
    1.3989842497e-02    1.0120000000e+05
    1.3999777846e-02    1.0120000000e+05
    1.4009987935e-02    1.0120000000e+05
    1.4019946568e-02    1.0120000000e+05
    1.4029908925e-02    1.0120000000e+05
    1.4039910398e-02    1.0120000000e+05
    1.4049908146e-02    1.0120000000e+05
    1.4059904031e-02    1.0120000000e+05
    1.4069928788e-02    1.0120000000e+05
    1.4079963788e-02    1.0120000000e+05
    1.4089990407e-02    1.0120000000e+05
    1.4099796303e-02    1.0120000000e+05
    1.4109870419e-02    1.0120000000e+05
    1.4119924977e-02    1.0120000000e+05
    1.4129756019e-02    1.0120000000e+05
    1.4139866456e-02    1.0120000000e+05
    1.4149966650e-02    1.0120000000e+05
    1.4159820043e-02    1.0120000000e+05
    1.4169949107e-02    1.0120000000e+05
    1.4179832302e-02    1.0120000000e+05
    1.4189957641e-02    1.0120000000e+05
    1.4199853875e-02    1.0120000000e+05
    1.4209765010e-02    1.0120000000e+05
    1.4219924808e-02    1.0120000000e+05
    1.4229857363e-02    1.0120000000e+05
    1.4239799231e-02    1.0120000000e+05
    1.4249985106e-02    1.0120000000e+05
    1.4259935357e-02    1.0120000000e+05
    1.4269903302e-02    1.0120000000e+05
    1.4279873110e-02    1.0120000000e+05
    1.4289841987e-02    1.0120000000e+05
    1.4299823903e-02    1.0120000000e+05
    1.4309824444e-02    1.0120000000e+05
    1.4319824986e-02    1.0120000000e+05
    1.4329828322e-02    1.0120000000e+05
    1.4339846559e-02    1.0120000000e+05
    1.4349868521e-02    1.0120000000e+05
    1.4359901659e-02    1.0120000000e+05
    1.4369941317e-02    1.0120000000e+05
    1.4379983768e-02    1.0120000000e+05
    1.4389783144e-02    1.0120000000e+05
    1.4399845153e-02    1.0120000000e+05
    1.4409915544e-02    1.0120000000e+05
    1.4419985935e-02    1.0120000000e+05
    1.4429807663e-02    1.0120000000e+05
    1.4439897612e-02    1.0120000000e+05
    1.4449993148e-02    1.0120000000e+05
    1.4459839091e-02    1.0120000000e+05
    1.4469940215e-02    1.0120000000e+05
    1.4479798265e-02    1.0120000000e+05
    1.4489919879e-02    1.0120000000e+05
    1.4499791898e-02    1.0120000000e+05
    1.4509920962e-02    1.0120000000e+05
    1.4519799501e-02    1.0120000000e+05
    1.4529941604e-02    1.0120000000e+05
    1.4539838769e-02    1.0120000000e+05
    1.4549990185e-02    1.0120000000e+05
    1.4559890144e-02    1.0120000000e+05
    1.4569799416e-02    1.0120000000e+05
    1.4579970390e-02    1.0120000000e+05
    1.4589890838e-02    1.0120000000e+05
    1.4599809423e-02    1.0120000000e+05
    1.4609991573e-02    1.0120000000e+05
    1.4619929716e-02    1.0120000000e+05
    1.4629871584e-02    1.0120000000e+05
    1.4639816247e-02    1.0120000000e+05
    1.4649758115e-02    1.0120000000e+05
    1.4659965411e-02    1.0120000000e+05
    1.4669924974e-02    1.0120000000e+05
    1.4679886401e-02    1.0120000000e+05
    1.4689848758e-02    1.0120000000e+05
    1.4699812979e-02    1.0120000000e+05
    1.4709787443e-02    1.0120000000e+05
    1.4719767496e-02    1.0120000000e+05
    1.4729744755e-02    1.0120000000e+05
    1.4739986509e-02    1.0120000000e+05
    1.4749970287e-02    1.0120000000e+05
    1.4759964310e-02    1.0120000000e+05
    1.4769959264e-02    1.0120000000e+05
    1.4779950492e-02    1.0120000000e+05
    1.4789953828e-02    1.0120000000e+05
    1.4799960889e-02    1.0120000000e+05
    1.4809972607e-02    1.0120000000e+05
    1.4819986187e-02    1.0120000000e+05
    1.4829998836e-02    1.0120000000e+05
    1.4839755371e-02    1.0120000000e+05
    1.4849769883e-02    1.0120000000e+05
    1.4859783463e-02    1.0120000000e+05
    1.4869799837e-02    1.0120000000e+05
    1.4879814349e-02    1.0120000000e+05
    1.4889835380e-02    1.0120000000e+05
    1.4899860136e-02    1.0120000000e+05
    1.4909885824e-02    1.0120000000e+05
    1.4919912443e-02    1.0120000000e+05
    1.4929939061e-02    1.0120000000e+05
    1.4939965680e-02    1.0120000000e+05
    1.4949991368e-02    1.0120000000e+05
    1.4959760010e-02    1.0120000000e+05
    1.4969785698e-02    1.0120000000e+05
    1.4979811385e-02    1.0120000000e+05
    1.4989837073e-02    1.0120000000e+05
    1.4999862760e-02    1.0120000000e+05
    1.5009888448e-02    1.0120000000e+05
    1.5019915067e-02    1.0120000000e+05
    1.5029941685e-02    1.0120000000e+05
    1.5039968304e-02    1.0120000000e+05
    1.5049995854e-02    1.0120000000e+05
    1.5059767291e-02    1.0120000000e+05
    1.5069795772e-02    1.0120000000e+05
    1.5079826117e-02    1.0120000000e+05
    1.5089857392e-02    1.0120000000e+05
    1.5099889599e-02    1.0120000000e+05
    1.5109920874e-02    1.0120000000e+05
    1.5119953081e-02    1.0120000000e+05
    1.5129985288e-02    1.0120000000e+05
    1.5139761381e-02    1.0120000000e+05
    1.5149793588e-02    1.0120000000e+05
    1.5159827657e-02    1.0120000000e+05
    1.5169861726e-02    1.0120000000e+05
    1.5179895796e-02    1.0120000000e+05
    1.5189930797e-02    1.0120000000e+05
    1.5199966729e-02    1.0120000000e+05
    1.5209745616e-02    1.0120000000e+05
    1.5219781548e-02    1.0120000000e+05
    1.5229818411e-02    1.0120000000e+05
    1.5239855275e-02    1.0120000000e+05
    1.5249892138e-02    1.0120000000e+05
    1.5259929933e-02    1.0120000000e+05
    1.5269967727e-02    1.0120000000e+05
    1.5279748477e-02    1.0120000000e+05
    1.5289787203e-02    1.0120000000e+05
    1.5299825929e-02    1.0120000000e+05
    1.5309865586e-02    1.0120000000e+05
    1.5319905244e-02    1.0120000000e+05
    1.5329944901e-02    1.0120000000e+05
    1.5339985490e-02    1.0120000000e+05
    1.5349769965e-02    1.0120000000e+05
    1.5359814279e-02    1.0120000000e+05
    1.5369862318e-02    1.0120000000e+05
    1.5379914083e-02    1.0120000000e+05
    1.5389966778e-02    1.0120000000e+05
    1.5399761498e-02    1.0120000000e+05
    1.5409812331e-02    1.0120000000e+05
    1.5419862233e-02    1.0120000000e+05
    1.5429911204e-02    1.0120000000e+05
    1.5439960174e-02    1.0120000000e+05
    1.5449751168e-02    1.0120000000e+05
    1.5459802933e-02    1.0120000000e+05
    1.5469857492e-02    1.0120000000e+05
    1.5479913913e-02    1.0120000000e+05
    1.5489970334e-02    1.0120000000e+05
    1.5499767847e-02    1.0120000000e+05
    1.5509822406e-02    1.0120000000e+05
    1.5519877896e-02    1.0120000000e+05
    1.5529933386e-02    1.0120000000e+05
    1.5539988875e-02    1.0120000000e+05
    1.5549787320e-02    1.0120000000e+05
    1.5559843741e-02    1.0120000000e+05
    1.5569901094e-02    1.0120000000e+05
    1.5579958446e-02    1.0120000000e+05
    1.5589756891e-02    1.0120000000e+05
    1.5599814244e-02    1.0120000000e+05
    1.5609870665e-02    1.0120000000e+05
    1.5619928017e-02    1.0120000000e+05
    1.5629984438e-02    1.0120000000e+05
    1.5639783815e-02    1.0120000000e+05
    1.5649842098e-02    1.0120000000e+05
    1.5659898520e-02    1.0120000000e+05
    1.5669956803e-02    1.0120000000e+05
    1.5679756179e-02    1.0120000000e+05
    1.5689814463e-02    1.0120000000e+05
    1.5699870884e-02    1.0120000000e+05
    1.5709929168e-02    1.0120000000e+05
    1.5719987452e-02    1.0120000000e+05
    1.5729786828e-02    1.0120000000e+05
    1.5739845112e-02    1.0120000000e+05
    1.5749903396e-02    1.0120000000e+05
    1.5759961680e-02    1.0120000000e+05
    1.5769761056e-02    1.0120000000e+05
    1.5779819340e-02    1.0120000000e+05
    1.5789877623e-02    1.0120000000e+05
    1.5799935907e-02    1.0120000000e+05
    1.5809994191e-02    1.0120000000e+05
    1.5819795430e-02    1.0120000000e+05
    1.5829853714e-02    1.0120000000e+05
    1.5839911997e-02    1.0120000000e+05
    1.5849970281e-02    1.0120000000e+05
    1.5859771520e-02    1.0120000000e+05
    1.5869829804e-02    1.0120000000e+05
    1.5879888088e-02    1.0120000000e+05
    1.5889946371e-02    1.0120000000e+05
    1.5899747610e-02    1.0120000000e+05
    1.5909805894e-02    1.0120000000e+05
    1.5919864178e-02    1.0120000000e+05
    1.5929924324e-02    1.0120000000e+05
    1.5939982608e-02    1.0120000000e+05
    1.5949783847e-02    1.0120000000e+05
    1.5959843993e-02    1.0120000000e+05
    1.5969902277e-02    1.0120000000e+05
    1.5979960561e-02    1.0120000000e+05
    1.5989761800e-02    1.0120000000e+05
    1.5999821946e-02    1.0120000000e+05
    1.6009882092e-02    1.0120000000e+05
    1.6019940376e-02    1.0120000000e+05
    1.6030000523e-02    1.0120000000e+05
    1.6039801762e-02    1.0120000000e+05
    1.6049860045e-02    1.0120000000e+05
    1.6059920192e-02    1.0120000000e+05
    1.6069978476e-02    1.0120000000e+05
    1.6079781577e-02    1.0120000000e+05
    1.6089839861e-02    1.0120000000e+05
    1.6099900007e-02    1.0120000000e+05
    1.6109960154e-02    1.0120000000e+05
    1.6119761392e-02    1.0120000000e+05
    1.6129821539e-02    1.0120000000e+05
    1.6139879823e-02    1.0120000000e+05
    1.6149939969e-02    1.0120000000e+05
    1.6159743071e-02    1.0120000000e+05
    1.6169801354e-02    1.0120000000e+05
    1.6179861501e-02    1.0120000000e+05
    1.6189921647e-02    1.0120000000e+05
    1.6199981794e-02    1.0120000000e+05
    1.6209784895e-02    1.0120000000e+05
    1.6219845042e-02    1.0120000000e+05
    1.6229905188e-02    1.0120000000e+05
    1.6239965335e-02    1.0120000000e+05
    1.6249766573e-02    1.0120000000e+05
    1.6259826720e-02    1.0120000000e+05
    1.6269888729e-02    1.0120000000e+05
    1.6279948875e-02    1.0120000000e+05
    1.6289751977e-02    1.0120000000e+05
    1.6299812123e-02    1.0120000000e+05
    1.6309872270e-02    1.0120000000e+05
    1.6319932416e-02    1.0120000000e+05
    1.6329994425e-02    1.0120000000e+05
    1.6339797527e-02    1.0120000000e+05
    1.6349857673e-02    1.0120000000e+05
    1.6359919682e-02    1.0120000000e+05
    1.6369979829e-02    1.0120000000e+05
    1.6379784793e-02    1.0120000000e+05
    1.6389844939e-02    1.0120000000e+05
    1.6399906948e-02    1.0120000000e+05
    1.6409968957e-02    1.0120000000e+05
    1.6419772059e-02    1.0120000000e+05
    1.6429834068e-02    1.0120000000e+05
    1.6439896077e-02    1.0120000000e+05
    1.6449958086e-02    1.0120000000e+05
    1.6459763050e-02    1.0120000000e+05
    1.6469825059e-02    1.0120000000e+05
    1.6479888931e-02    1.0120000000e+05
    1.6489950940e-02    1.0120000000e+05
    1.6499755904e-02    1.0120000000e+05
    1.6509817913e-02    1.0120000000e+05
    1.6519881785e-02    1.0120000000e+05
    1.6529943794e-02    1.0120000000e+05
    1.6539748758e-02    1.0120000000e+05
    1.6549812630e-02    1.0120000000e+05
    1.6559876502e-02    1.0120000000e+05
    1.6569940373e-02    1.0120000000e+05
    1.6579745337e-02    1.0120000000e+05
    1.6589809209e-02    1.0120000000e+05
    1.6599873081e-02    1.0120000000e+05
    1.6609938815e-02    1.0120000000e+05
    1.6619743779e-02    1.0120000000e+05
    1.6629809514e-02    1.0120000000e+05
    1.6639873385e-02    1.0120000000e+05
    1.6649937257e-02    1.0120000000e+05
    1.6659744084e-02    1.0120000000e+05
    1.6669809818e-02    1.0120000000e+05
    1.6679875553e-02    1.0120000000e+05
    1.6689941287e-02    1.0120000000e+05
    1.6699748114e-02    1.0120000000e+05
    1.6709811985e-02    1.0120000000e+05
    1.6719877720e-02    1.0120000000e+05
    1.6729943454e-02    1.0120000000e+05
    1.6739752144e-02    1.0120000000e+05
    1.6749817878e-02    1.0120000000e+05
    1.6759885475e-02    1.0120000000e+05
    1.6769951209e-02    1.0120000000e+05
    1.6779761761e-02    1.0120000000e+05
    1.6789827496e-02    1.0120000000e+05
    1.6799895093e-02    1.0120000000e+05
    1.6809962690e-02    1.0120000000e+05
    1.6819771379e-02    1.0120000000e+05
    1.6829837114e-02    1.0120000000e+05
    1.6839904711e-02    1.0120000000e+05
    1.6849972308e-02    1.0120000000e+05
    1.6859782860e-02    1.0120000000e+05
    1.6869850457e-02    1.0120000000e+05
    1.6879918054e-02    1.0120000000e+05
    1.6889985651e-02    1.0120000000e+05
    1.6899796203e-02    1.0120000000e+05
    1.6909865662e-02    1.0120000000e+05
    1.6919933259e-02    1.0120000000e+05
    1.6929743811e-02    1.0120000000e+05
    1.6939813271e-02    1.0120000000e+05
    1.6949880868e-02    1.0120000000e+05
    1.6959950328e-02    1.0120000000e+05
    1.6969760880e-02    1.0120000000e+05
    1.6979830340e-02    1.0120000000e+05
    1.6989899799e-02    1.0120000000e+05
    1.6999969259e-02    1.0120000000e+05
    1.7009781674e-02    1.0120000000e+05
    1.7019851133e-02    1.0120000000e+05
    1.7029920593e-02    1.0120000000e+05
    1.7039991915e-02    1.0120000000e+05
    1.7049802467e-02    1.0120000000e+05
    1.7059873790e-02    1.0120000000e+05
    1.7069943249e-02    1.0120000000e+05
    1.7079755664e-02    1.0120000000e+05
    1.7089826986e-02    1.0120000000e+05
    1.7099898309e-02    1.0120000000e+05
    1.7109967768e-02    1.0120000000e+05
    1.7119782045e-02    1.0120000000e+05
    1.7129853368e-02    1.0120000000e+05
    1.7139924690e-02    1.0120000000e+05
    1.7149996012e-02    1.0120000000e+05
    1.7159808427e-02    1.0120000000e+05
    1.7169879749e-02    1.0120000000e+05
    1.7179952934e-02    1.0120000000e+05
    1.7189767212e-02    1.0120000000e+05
    1.7199838534e-02    1.0120014844e+05
    1.7209909856e-02    1.0139935156e+05
    1.7219983041e-02    1.3822506250e+05
    1.7229797319e-02    1.5313135938e+05
    1.7239870504e-02    1.5314951562e+05
    1.7249941826e-02    1.5301200000e+05
    1.7259757966e-02    1.5287000000e+05
    1.7269831151e-02    1.5272225000e+05
    1.7279904336e-02    1.5257490625e+05
    1.7289977521e-02    1.5242754688e+05
    1.7299791798e-02    1.5228454688e+05
    1.7309864983e-02    1.5213796875e+05
    1.7319940031e-02    1.5199184375e+05
    1.7329754308e-02    1.5184975000e+05
    1.7339829355e-02    1.5170431250e+05
    1.7349902540e-02    1.5155921875e+05
    1.7359977588e-02    1.5141446875e+05
    1.7369793728e-02    1.5127378125e+05
    1.7379866913e-02    1.5112973438e+05
    1.7389941961e-02    1.5098604688e+05
    1.7399758101e-02    1.5084637500e+05
    1.7409833148e-02    1.5070337500e+05
    1.7419908196e-02    1.5056071875e+05
    1.7429983243e-02    1.5041840625e+05
    1.7439799383e-02    1.5028007812e+05
    1.7449876294e-02    1.5013843750e+05
    1.7459951341e-02    1.4999715625e+05
    1.7469767481e-02    1.4985982812e+05
    1.7479844391e-02    1.4971921875e+05
    1.7489919439e-02    1.4957893750e+05
    1.7499994487e-02    1.4943901562e+05
    1.7509812489e-02    1.4930298438e+05
    1.7519889399e-02    1.4916373438e+05
    1.7529964447e-02    1.4902479688e+05
    1.7539782450e-02    1.4888976562e+05
    1.7549859360e-02    1.4875150000e+05
    1.7559936270e-02    1.4861357812e+05
    1.7569754273e-02    1.4847950000e+05
    1.7579831183e-02    1.4834223438e+05
    1.7589908093e-02    1.4820528125e+05
    1.7599985003e-02    1.4806867188e+05
    1.7609803006e-02    1.4793589062e+05
    1.7619879916e-02    1.4779992188e+05
    1.7629956827e-02    1.4766429688e+05
    1.7639776692e-02    1.4753245312e+05
    1.7649853602e-02    1.4739745312e+05
    1.7659930512e-02    1.4726279688e+05
    1.7669750378e-02    1.4713189062e+05
    1.7679827288e-02    1.4699785938e+05
    1.7689906061e-02    1.4686414062e+05
    1.7699982971e-02    1.4673075000e+05
    1.7709802836e-02    1.4660107812e+05
    1.7719881609e-02    1.4646832812e+05
    1.7729958519e-02    1.4633587500e+05
    1.7739778385e-02    1.4620712500e+05
    1.7749857157e-02    1.4607529688e+05
    1.7759935930e-02    1.4594379688e+05
    1.7769755796e-02    1.4581595312e+05
    1.7779834569e-02    1.4568506250e+05
    1.7789913341e-02    1.4555448438e+05
    1.7799992114e-02    1.4542421875e+05
    1.7809811980e-02    1.4529757812e+05
    1.7819890752e-02    1.4516792188e+05
    1.7829971388e-02    1.4503857812e+05
    1.7839791253e-02    1.4491282812e+05
    1.7849870026e-02    1.4478407812e+05
    1.7859950662e-02    1.4465564062e+05
    1.7869770527e-02    1.4453078125e+05
    1.7879851162e-02    1.4440295312e+05
    1.7889929935e-02    1.4427540625e+05
    1.7899751663e-02    1.4415143750e+05
    1.7909830436e-02    1.4402450000e+05
    1.7919911072e-02    1.4389785938e+05
    1.7929989845e-02    1.4377151562e+05
    1.7939811572e-02    1.4364870312e+05
    1.7949892208e-02    1.4352293750e+05
    1.7959972844e-02    1.4339748438e+05
    1.7969794571e-02    1.4327553125e+05
    1.7979875207e-02    1.4315065625e+05
    1.7989955842e-02    1.4302606250e+05
    1.7999777570e-02    1.4290495312e+05
    1.8009858206e-02    1.4278095312e+05
    1.8019938841e-02    1.4265723438e+05
    1.8029760569e-02    1.4253696875e+05
    1.8039841205e-02    1.4241382812e+05
    1.8049921840e-02    1.4229096875e+05
    1.8059745431e-02    1.4217154688e+05
    1.8069826066e-02    1.4204925000e+05
    1.8079906702e-02    1.4192726562e+05
    1.8089987338e-02    1.4180554688e+05
    1.8099810928e-02    1.4168721875e+05
    1.8109891564e-02    1.4156606250e+05
    1.8119974062e-02    1.4144518750e+05
    1.8129795790e-02    1.4132768750e+05
    1.8139878288e-02    1.4120737500e+05
    1.8149960786e-02    1.4108732812e+05
    1.8159782514e-02    1.4097064062e+05
    1.8169865012e-02    1.4085115625e+05
    1.8179947510e-02    1.4073195312e+05
    1.8189769238e-02    1.4061607812e+05
    1.8199851736e-02    1.4049742188e+05
    1.8209934235e-02    1.4037904688e+05
    1.8219757825e-02    1.4026396875e+05
    1.8229840323e-02    1.4014612500e+05
    1.8239920959e-02    1.4002856250e+05
    1.8249746412e-02    1.3991426562e+05
    1.8259827048e-02    1.3979723438e+05
    1.8269909546e-02    1.3968046875e+05
    1.8279992044e-02    1.3956398438e+05
    1.8289817497e-02    1.3945073438e+05
    1.8299899995e-02    1.3933478125e+05
    1.8309982494e-02    1.3921909375e+05
    1.8319806084e-02    1.3910664062e+05
    1.8329888582e-02    1.3899146875e+05
    1.8339971080e-02    1.3887657812e+05
    1.8349796534e-02    1.3876487500e+05
    1.8359879032e-02    1.3865050000e+05
    1.8369961530e-02    1.3853639062e+05
    1.8379786983e-02    1.3842546875e+05
    1.8389869481e-02    1.3831189062e+05
    1.8399951980e-02    1.3819856250e+05
    1.8409777433e-02    1.3808839062e+05
    1.8419859931e-02    1.3797557812e+05
    1.8429942429e-02    1.3786301562e+05
    1.8439767882e-02    1.3775359375e+05
    1.8449850380e-02    1.3764154688e+05
    1.8459934741e-02    1.3752976562e+05
    1.8469758332e-02    1.3742109375e+05
    1.8479842693e-02    1.3730981250e+05
    1.8489925191e-02    1.3719878125e+05
    1.8499750644e-02    1.3709084375e+05
    1.8509835005e-02    1.3698031250e+05
    1.8519917503e-02    1.3687003125e+05
    1.8529742956e-02    1.3676282812e+05
    1.8539827317e-02    1.3665306250e+05
    1.8549909815e-02    1.3654353125e+05
    1.8559994176e-02    1.3643425000e+05
    1.8569819629e-02    1.3632801562e+05
    1.8579902127e-02    1.3621923438e+05
    1.8589986488e-02    1.3611070312e+05
    1.8599811941e-02    1.3600518750e+05
    1.8609896302e-02    1.3589714062e+05
    1.8619978800e-02    1.3578932812e+05
    1.8629804254e-02    1.3568453125e+05
    1.8639888614e-02    1.3557720312e+05
    1.8649972975e-02    1.3547014062e+05
    1.8659798428e-02    1.3536604688e+05
    1.8669880927e-02    1.3525945312e+05
    1.8679965287e-02    1.3515309375e+05
    1.8689790741e-02    1.3504970312e+05
    1.8699875101e-02    1.3494381250e+05
    1.8709959462e-02    1.3483817188e+05
    1.8719784915e-02    1.3473548438e+05
    1.8729869276e-02    1.3463031250e+05
    1.8739951774e-02    1.3452537500e+05
    1.8749777228e-02    1.3442335938e+05
    1.8759861588e-02    1.3431889062e+05
    1.8769945949e-02    1.3421465625e+05
    1.8779771402e-02    1.3411332812e+05
    1.8789855763e-02    1.3400956250e+05
    1.8799940124e-02    1.3390603125e+05
    1.8809765577e-02    1.3380537500e+05
    1.8819849938e-02    1.3370229688e+05
    1.8829934299e-02    1.3359945312e+05
    1.8839759752e-02    1.3349948438e+05
    1.8849844113e-02    1.3339709375e+05
    1.8859926611e-02    1.3329493750e+05
    1.8869752064e-02    1.3319562500e+05
    1.8879836425e-02    1.3309392188e+05
    1.8889920786e-02    1.3299245312e+05
    1.8899746239e-02    1.3289379688e+05
    1.8909830600e-02    1.3279278125e+05
    1.8919914961e-02    1.3269198438e+05
    1.8929999322e-02    1.3259142188e+05
    1.8939824775e-02    1.3249364062e+05
    1.8949909136e-02    1.3239351562e+05
    1.8959993497e-02    1.3229360938e+05
    1.8969818950e-02    1.3219648438e+05
    1.8979903311e-02    1.3209703125e+05
    1.8989987671e-02    1.3199778125e+05
    1.8999813125e-02    1.3190131250e+05
    1.9009897485e-02    1.3180250000e+05
    1.9019981846e-02    1.3170392188e+05
    1.9029807299e-02    1.3160806250e+05
    1.9039891660e-02    1.3150992188e+05
    1.9049976021e-02    1.3141198438e+05
    1.9059801474e-02    1.3131676562e+05
    1.9069885835e-02    1.3121926562e+05
    1.9079970196e-02    1.3112196875e+05
    1.9089795649e-02    1.3102739844e+05
    1.9099878147e-02    1.3093052344e+05
    1.9109962508e-02    1.3083387500e+05
    1.9119787961e-02    1.3073991406e+05
    1.9129872322e-02    1.3064369531e+05
    1.9139956683e-02    1.3054768750e+05
    1.9149782136e-02    1.3045433594e+05
    1.9159866497e-02    1.3035875000e+05
    1.9169950858e-02    1.3026337500e+05
    1.9179776311e-02    1.3017064844e+05
    1.9189860672e-02    1.3007567969e+05
    1.9199945033e-02    1.2998091406e+05
    1.9209770486e-02    1.2988880469e+05
    1.9219854847e-02    1.2979446094e+05
    1.9229939207e-02    1.2970033594e+05
    1.9239764661e-02    1.2960882031e+05
    1.9249849021e-02    1.2951508594e+05
    1.9259933382e-02    1.2942157031e+05
    1.9269758835e-02    1.2933065625e+05
    1.9279843196e-02    1.2923753906e+05
    1.9289927557e-02    1.2914464844e+05
    1.9299753010e-02    1.2905431250e+05
    1.9309837371e-02    1.2896180469e+05
    1.9319919869e-02    1.2886952344e+05
    1.9329745322e-02    1.2877978906e+05
    1.9339829683e-02    1.2868791406e+05
    1.9349914044e-02    1.2859627344e+05
    1.9359998405e-02    1.2850482031e+05
    1.9369823858e-02    1.2841585156e+05
    1.9379908219e-02    1.2832458594e+05
    1.9389992580e-02    1.2823337500e+05
    1.9399818033e-02    1.2814485156e+05
    1.9409902394e-02    1.2805475000e+05
    1.9419984892e-02    1.2796521875e+05
    1.9429810345e-02    1.2787759375e+05
    1.9439894706e-02    1.2778665625e+05
[...]
    1.1513993144e-01    1.0123474219e+05
    1.1514978856e-01    1.0123472656e+05
    1.1515995115e-01    1.0123471875e+05
    1.1516981572e-01    1.0123471094e+05
    1.1517997831e-01    1.0123469531e+05
    1.1518984288e-01    1.0123468750e+05
    1.1519970745e-01    1.0123466406e+05
    1.1520986259e-01    1.0123466406e+05
    1.1521972716e-01    1.0123464844e+05
    1.1522988975e-01    1.0123464844e+05
    1.1523975432e-01    1.0123463281e+05
    1.1524991691e-01    1.0123461719e+05
    1.1525978148e-01    1.0123460156e+05
    1.1526993662e-01    1.0123460156e+05
    1.1527980119e-01    1.0123459375e+05
    1.1528996378e-01    1.0123458594e+05
    1.1529982835e-01    1.0123457031e+05
    1.1530999094e-01    1.0123456250e+05
    1.1531985551e-01    1.0123453906e+05
    1.1532971263e-01    1.0123453906e+05
    1.1533987522e-01    1.0123453125e+05
    1.1534973979e-01    1.0123452344e+05
    1.1535990238e-01    1.0123450781e+05
    1.1536976695e-01    1.0123449219e+05
    1.1537992954e-01    1.0123447656e+05
    1.1538978666e-01    1.0123447656e+05
    1.1539994925e-01    1.0123446094e+05
    1.1540981382e-01    1.0123446094e+05
    1.1541997641e-01    1.0123443750e+05
    1.1542984098e-01    1.0123442969e+05
    1.1543970555e-01    1.0123441406e+05
    1.1544986069e-01    1.0123440625e+05
    1.1545972526e-01    1.0123439844e+05
    1.1546988785e-01    1.0123439844e+05
    1.1547975242e-01    1.0123437500e+05
    1.1548991501e-01    1.0123436719e+05
    1.1549977958e-01    1.0123435156e+05
    1.1550993472e-01    1.0123435156e+05
    1.1551979929e-01    1.0123433594e+05
    1.1552996188e-01    1.0123433594e+05
    1.1553982645e-01    1.0123432031e+05
    1.1554998904e-01    1.0123430469e+05
    1.1555985361e-01    1.0123428906e+05
    1.1556971073e-01    1.0123428906e+05
    1.1557987332e-01    1.0123427344e+05
    1.1558973789e-01    1.0123427344e+05
    1.1559990048e-01    1.0123425781e+05
    1.1560976505e-01    1.0123424219e+05
    1.1561992764e-01    1.0123422656e+05
    1.1562978476e-01    1.0123422656e+05
    1.1563994735e-01    1.0123421094e+05
    1.1564981192e-01    1.0123421094e+05
    1.1565997452e-01    1.0123419531e+05
    1.1566983908e-01    1.0123417969e+05
    1.1568000168e-01    1.0123416406e+05
    1.1568985879e-01    1.0123416406e+05
    1.1569972336e-01    1.0123414844e+05
    1.1570988595e-01    1.0123414844e+05
    1.1571975052e-01    1.0123413281e+05
    1.1572991312e-01    1.0123411719e+05
    1.1573977768e-01    1.0123410156e+05
    1.1574993283e-01    1.0123409375e+05
    1.1575979739e-01    1.0123408594e+05
    1.1576995999e-01    1.0123408594e+05
    1.1577982455e-01    1.0123406250e+05
    1.1578998715e-01    1.0123405469e+05
    1.1579985172e-01    1.0123403906e+05
    1.1580970883e-01    1.0123403125e+05
    1.1581987143e-01    1.0123402344e+05
    1.1582973599e-01    1.0123402344e+05
    1.1583989859e-01    1.0123400000e+05
    1.1584976315e-01    1.0123399219e+05
    1.1585992575e-01    1.0123397656e+05
    1.1586978287e-01    1.0123396875e+05
    1.1587994546e-01    1.0123396094e+05
    1.1588981003e-01    1.0123394531e+05
    1.1589997262e-01    1.0123393750e+05
    1.1590983719e-01    1.0123392969e+05
    1.1591999978e-01    1.0123391406e+05
    1.1592985690e-01    1.0123390625e+05
    1.1593972147e-01    1.0123389844e+05
    1.1594988406e-01    1.0123389844e+05
    1.1595974863e-01    1.0123388281e+05
    1.1596991122e-01    1.0123387500e+05
    1.1597977579e-01    1.0123386719e+05
    1.1598993838e-01    1.0123385156e+05
    1.1599979550e-01    1.0123384375e+05
    1.1600995809e-01    1.0123383594e+05
    1.1601982266e-01    1.0123383594e+05
    1.1602998525e-01    1.0123381250e+05
    1.1603984982e-01    1.0123378906e+05
    1.1604970694e-01    1.0123378906e+05
    1.1605986953e-01    1.0123378125e+05
    1.1606973410e-01    1.0123377344e+05
    1.1607989669e-01    1.0123375781e+05
    1.1608976126e-01    1.0123375000e+05
    1.1609992385e-01    1.0123374219e+05
    1.1610978097e-01    1.0123372656e+05
    1.1611994356e-01    1.0123372656e+05
    1.1612980813e-01    1.0123371875e+05
    1.1613997072e-01    1.0123371094e+05
    1.1614983529e-01    1.0123369531e+05
    1.1615999788e-01    1.0123368750e+05
    1.1616986245e-01    1.0123366406e+05
    1.1617971957e-01    1.0123365625e+05
    1.1618988216e-01    1.0123364844e+05
    1.1619974673e-01    1.0123363281e+05
    1.1620990932e-01    1.0123362500e+05
    1.1621977389e-01    1.0123361719e+05
    1.1622993648e-01    1.0123360156e+05
    1.1623979360e-01    1.0123360156e+05
    1.1624995619e-01    1.0123358594e+05
    1.1625982076e-01    1.0123358594e+05
    1.1626998335e-01    1.0123357031e+05
    1.1627984792e-01    1.0123355469e+05
    1.1628970504e-01    1.0123353906e+05
    1.1629986763e-01    1.0123353125e+05
    1.1630973220e-01    1.0123352344e+05
    1.1631989479e-01    1.0123352344e+05
    1.1632975936e-01    1.0123350000e+05
    1.1633992195e-01    1.0123349219e+05
    1.1634977907e-01    1.0123347656e+05
    1.1635994166e-01    1.0123346875e+05
    1.1636980623e-01    1.0123346094e+05
    1.1637996882e-01    1.0123346094e+05
    1.1638983339e-01    1.0123344531e+05
    1.1639999598e-01    1.0123343750e+05
    1.1640986055e-01    1.0123342969e+05
    1.1641971767e-01    1.0123341406e+05
    1.1642988026e-01    1.0123341406e+05
    1.1643974483e-01    1.0123339844e+05
    1.1644990742e-01    1.0123339844e+05
    1.1645977199e-01    1.0123338281e+05
    1.1646993458e-01    1.0123336719e+05
    1.1647979170e-01    1.0123335156e+05
    1.1648995429e-01    1.0123334375e+05
    1.1649981886e-01    1.0123333594e+05
    1.1650998145e-01    1.0123332031e+05
    1.1651984602e-01    1.0123331250e+05
    1.1652970314e-01    1.0123330469e+05
    1.1653986573e-01    1.0123328906e+05
    1.1654973030e-01    1.0123328125e+05
    1.1655989289e-01    1.0123327344e+05
    1.1656975746e-01    1.0123325781e+05
    1.1657992005e-01    1.0123325000e+05
    1.1658978462e-01    1.0123324219e+05
    1.1659993976e-01    1.0123322656e+05
    1.1660980433e-01    1.0123321875e+05
    1.1661996692e-01    1.0123321094e+05
    1.1662983149e-01    1.0123319531e+05
    1.1663999408e-01    1.0123318750e+05
    1.1664985865e-01    1.0123317969e+05
    1.1665971577e-01    1.0123316406e+05
    1.1666987836e-01    1.0123316406e+05
    1.1667974293e-01    1.0123315625e+05
    1.1668990552e-01    1.0123314844e+05
    1.1669977009e-01    1.0123313281e+05
    1.1670993268e-01    1.0123312500e+05
    1.1671978980e-01    1.0123311719e+05
    1.1672995239e-01    1.0123310156e+05
    1.1673981696e-01    1.0123309375e+05
    1.1674997956e-01    1.0123308594e+05
    1.1675984412e-01    1.0123308594e+05
    1.1676970869e-01    1.0123306250e+05
    1.1677986383e-01    1.0123305469e+05
    1.1678972840e-01    1.0123303906e+05
    1.1679989100e-01    1.0123303906e+05
    1.1680975556e-01    1.0123302344e+05
    1.1681991816e-01    1.0123302344e+05
    1.1682978272e-01    1.0123300781e+05
    1.1683993787e-01    1.0123299219e+05
    1.1684980243e-01    1.0123297656e+05
    1.1685996503e-01    1.0123297656e+05
    1.1686982960e-01    1.0123296094e+05
    1.1687999219e-01    1.0123296094e+05
    1.1688985676e-01    1.0123294531e+05
    1.1689971387e-01    1.0123292969e+05
    1.1690987647e-01    1.0123291406e+05
    1.1691974103e-01    1.0123291406e+05
    1.1692990363e-01    1.0123289844e+05
    1.1693976820e-01    1.0123289844e+05
    1.1694993079e-01    1.0123288281e+05
    1.1695978791e-01    1.0123287500e+05
    1.1696995050e-01    1.0123285156e+05
    1.1697981507e-01    1.0123285156e+05
    1.1698997766e-01    1.0123284375e+05
    1.1699984223e-01    1.0123283594e+05
    1.1700970680e-01    1.0123282031e+05
    1.1701986194e-01    1.0123281250e+05
    1.1702972651e-01    1.0123280469e+05
    1.1703988910e-01    1.0123278906e+05
    1.1704975367e-01    1.0123278906e+05
    1.1705991626e-01    1.0123278125e+05
    1.1706978083e-01    1.0123277344e+05
    1.1707993597e-01    1.0123275781e+05
    1.1708980054e-01    1.0123275000e+05
    1.1709996313e-01    1.0123274219e+05
    1.1710982770e-01    1.0123272656e+05
    1.1711999029e-01    1.0123271875e+05
    1.1712985486e-01    1.0123271094e+05
    1.1713971198e-01    1.0123271094e+05
    1.1714987457e-01    1.0123268750e+05
    1.1715973914e-01    1.0123267969e+05
    1.1716990173e-01    1.0123266406e+05
    1.1717976630e-01    1.0123266406e+05
    1.1718992889e-01    1.0123264844e+05
    1.1719978601e-01    1.0123264844e+05
    1.1720994860e-01    1.0123263281e+05
    1.1721981317e-01    1.0123262500e+05
    1.1722997576e-01    1.0123261719e+05
    1.1723984033e-01    1.0123260156e+05
    1.1724970490e-01    1.0123259375e+05
    1.1725986004e-01    1.0123258594e+05
    1.1726972461e-01    1.0123258594e+05
    1.1727988720e-01    1.0123257031e+05
    1.1728975177e-01    1.0123255469e+05
    1.1729991436e-01    1.0123253906e+05
    1.1730977893e-01    1.0123253906e+05
    1.1731994152e-01    1.0123253125e+05
    1.1732979864e-01    1.0123252344e+05
    1.1733996123e-01    1.0123250781e+05
    1.1734982580e-01    1.0123250000e+05
    1.1735998839e-01    1.0123249219e+05
    1.1736985296e-01    1.0123247656e+05
    1.1737971008e-01    1.0123247656e+05
    1.1738987267e-01    1.0123246094e+05
    1.1739973724e-01    1.0123246094e+05
    1.1740989983e-01    1.0123244531e+05
    1.1741976440e-01    1.0123243750e+05
    1.1742992699e-01    1.0123242969e+05
    1.1743978411e-01    1.0123241406e+05
    1.1744994670e-01    1.0123240625e+05
    1.1745981127e-01    1.0123239844e+05
    1.1746997386e-01    1.0123239844e+05
    1.1747983843e-01    1.0123238281e+05
    1.1749000102e-01    1.0123236719e+05
    1.1749986559e-01    1.0123235156e+05
    1.1750972271e-01    1.0123235156e+05
    1.1751988530e-01    1.0123234375e+05
    1.1752974987e-01    1.0123233594e+05
    1.1753991246e-01    1.0123233594e+05
    1.1754977703e-01    1.0123231250e+05
    1.1755993962e-01    1.0123230469e+05
    1.1756979674e-01    1.0123228906e+05
    1.1757995933e-01    1.0123228906e+05
    1.1758982390e-01    1.0123228125e+05
    1.1759998649e-01    1.0123227344e+05
    1.1760985106e-01    1.0123225781e+05
    1.1761970818e-01    1.0123225000e+05
    1.1762987077e-01    1.0123224219e+05
    1.1763973534e-01    1.0123222656e+05
    1.1764989793e-01    1.0123222656e+05
    1.1765976250e-01    1.0123221094e+05
    1.1766992509e-01    1.0123221094e+05
    1.1767978966e-01    1.0123219531e+05
    1.1768994480e-01    1.0123218750e+05
    1.1769980937e-01    1.0123217969e+05
    1.1770997196e-01    1.0123216406e+05
    1.1771983653e-01    1.0123216406e+05
    1.1772999913e-01    1.0123214844e+05
    1.1773986369e-01    1.0123214844e+05
    1.1774972081e-01    1.0123213281e+05
    1.1775988340e-01    1.0123212500e+05
    1.1776974797e-01    1.0123211719e+05
    1.1777991056e-01    1.0123210156e+05
    1.1778977513e-01    1.0123210156e+05
    1.1779993773e-01    1.0123209375e+05
    1.1780979484e-01    1.0123208594e+05
    1.1781995744e-01    1.0123207031e+05
    1.1782982200e-01    1.0123206250e+05
    1.1783998460e-01    1.0123205469e+05
    1.1784984916e-01    1.0123203906e+05
    1.1785971373e-01    1.0123203906e+05
    1.1786986887e-01    1.0123203125e+05
    1.1787973344e-01    1.0123202344e+05
    1.1788989604e-01    1.0123202344e+05
    1.1789976060e-01    1.0123200781e+05
    1.1790992320e-01    1.0123199219e+05
    1.1791978776e-01    1.0123197656e+05
    1.1792994291e-01    1.0123197656e+05
    1.1793980747e-01    1.0123196875e+05
    1.1794997007e-01    1.0123196094e+05
    1.1795983464e-01    1.0123196094e+05
    1.1796999723e-01    1.0123194531e+05
    1.1797986180e-01    1.0123193750e+05
    1.1798971891e-01    1.0123192969e+05
    1.1799988151e-01    1.0123191406e+05
    1.1800974607e-01    1.0123191406e+05
    1.1801990867e-01    1.0123189844e+05
    1.1802977324e-01    1.0123189844e+05
    1.1803993583e-01    1.0123188281e+05
    1.1804979295e-01    1.0123187500e+05
    1.1805995554e-01    1.0123186719e+05
    1.1806982011e-01    1.0123185156e+05
    1.1807998270e-01    1.0123185156e+05
    1.1808984727e-01    1.0123184375e+05
    1.1809971184e-01    1.0123183594e+05
    1.1810986698e-01    1.0123183594e+05
    1.1811973155e-01    1.0123182031e+05
    1.1812989414e-01    1.0123180469e+05
    1.1813975871e-01    1.0123178906e+05
    1.1814992130e-01    1.0123178906e+05
    1.1815978587e-01    1.0123178125e+05
    1.1816994846e-01    1.0123177344e+05
    1.1817980558e-01    1.0123177344e+05
    1.1818996817e-01    1.0123175781e+05
    1.1819983274e-01    1.0123175000e+05
    1.1820999533e-01    1.0123174219e+05
    1.1821985990e-01    1.0123172656e+05
    1.1822971702e-01    1.0123172656e+05
    1.1823987961e-01    1.0123171875e+05
    1.1824974418e-01    1.0123171094e+05
    1.1825990677e-01    1.0123171094e+05
    1.1826977134e-01    1.0123168750e+05
    1.1827993393e-01    1.0123167969e+05
    1.1828979850e-01    1.0123166406e+05
    1.1829995364e-01    1.0123166406e+05
    1.1830981821e-01    1.0123165625e+05
    1.1831998080e-01    1.0123164844e+05
    1.1832984537e-01    1.0123164844e+05
    1.1833970994e-01    1.0123163281e+05
    1.1834987253e-01    1.0123162500e+05
    1.1835972965e-01    1.0123161719e+05
    1.1836989224e-01    1.0123160156e+05
    1.1837975681e-01    1.0123159375e+05
    1.1838991940e-01    1.0123158594e+05
    1.1839978397e-01    1.0123158594e+05
    1.1840994656e-01    1.0123157031e+05
    1.1841980368e-01    1.0123156250e+05
    1.1842996627e-01    1.0123155469e+05
    1.1843983084e-01    1.0123153906e+05
    1.1844999343e-01    1.0123153906e+05
    1.1845985800e-01    1.0123153125e+05
    1.1846972257e-01    1.0123152344e+05
    1.1847987771e-01    1.0123152344e+05
    1.1848974228e-01    1.0123150000e+05
    1.1849990487e-01    1.0123149219e+05
    1.1850976944e-01    1.0123147656e+05
    1.1851993203e-01    1.0123147656e+05
    1.1852979660e-01    1.0123146875e+05
    1.1853995919e-01    1.0123146094e+05
    1.1854981631e-01    1.0123146094e+05
    1.1855997890e-01    1.0123144531e+05
    1.1856984347e-01    1.0123142969e+05
    1.1857970804e-01    1.0123141406e+05
    1.1858987063e-01    1.0123141406e+05
    1.1859972775e-01    1.0123140625e+05
    1.1860989034e-01    1.0123139844e+05
    1.1861975491e-01    1.0123139844e+05
    1.1862991750e-01    1.0123138281e+05
    1.1863978207e-01    1.0123137500e+05
    1.1864994466e-01    1.0123136719e+05
    1.1865980923e-01    1.0123135156e+05
    1.1866996437e-01    1.0123134375e+05
    1.1867982894e-01    1.0123133594e+05
    1.1868999153e-01    1.0123133594e+05
    1.1869985610e-01    1.0123131250e+05
    1.1870972067e-01    1.0123130469e+05
    1.1871988326e-01    1.0123128906e+05
    1.1872974038e-01    1.0123128906e+05
    1.1873990297e-01    1.0123128125e+05
    1.1874976754e-01    1.0123127344e+05
    1.1875993013e-01    1.0123127344e+05
    1.1876979470e-01    1.0123125781e+05
    1.1877995729e-01    1.0123124219e+05
    1.1878981441e-01    1.0123122656e+05
    1.1879997700e-01    1.0123122656e+05
    1.1880984157e-01    1.0123121875e+05
    1.1881970614e-01    1.0123121094e+05
    1.1882986873e-01    1.0123121094e+05
    1.1883973330e-01    1.0123118750e+05
    1.1884989589e-01    1.0123117969e+05
    1.1885975301e-01    1.0123116406e+05
    1.1886991560e-01    1.0123116406e+05
    1.1887978017e-01    1.0123115625e+05
    1.1888994277e-01    1.0123114844e+05
    1.1889980733e-01    1.0123113281e+05
    1.1890996993e-01    1.0123112500e+05
    1.1891982704e-01    1.0123111719e+05
    1.1892998964e-01    1.0123110156e+05
    1.1893985420e-01    1.0123110156e+05
    1.1894971877e-01    1.0123109375e+05
    1.1895988137e-01    1.0123108594e+05
    1.1896974593e-01    1.0123108594e+05
    1.1897990108e-01    1.0123106250e+05
    1.1898976564e-01    1.0123105469e+05
    1.1899992824e-01    1.0123103906e+05
    1.1900979280e-01    1.0123103125e+05
    1.1901995540e-01    1.0123102344e+05
    1.1902981997e-01    1.0123102344e+05
    1.1903998256e-01    1.0123100000e+05
    1.1904983968e-01    1.0123099219e+05
    1.1905970424e-01    1.0123097656e+05
    1.1906986684e-01    1.0123097656e+05
    1.1907973140e-01    1.0123096875e+05
    1.1908989400e-01    1.0123096094e+05
    1.1909975111e-01    1.0123094531e+05
    1.1910991371e-01    1.0123093750e+05
    1.1911977828e-01    1.0123093750e+05
    1.1912994087e-01    1.0123092969e+05
    1.1913980544e-01    1.0123091406e+05
    1.1914996803e-01    1.0123091406e+05
    1.1915983260e-01    1.0123090625e+05
    1.1916998774e-01    1.0123089844e+05
    1.1917985231e-01    1.0123089844e+05
    1.1918971688e-01    1.0123089844e+05
    1.1919987947e-01    1.0123088281e+05
    1.1920974404e-01    1.0123087500e+05
    1.1921990663e-01    1.0123086719e+05
    1.1922976375e-01    1.0123086719e+05
    1.1923992634e-01    1.0123085156e+05
    1.1924979091e-01    1.0123085156e+05
    1.1925995350e-01    1.0123084375e+05
    1.1926981807e-01    1.0123083594e+05
    1.1927998066e-01    1.0123083594e+05
    1.1928983778e-01    1.0123082031e+05
    1.1929970235e-01    1.0123081250e+05
    1.1930986494e-01    1.0123080469e+05
    1.1931972951e-01    1.0123078906e+05
    1.1932989210e-01    1.0123078125e+05
    1.1933975667e-01    1.0123077344e+05
    1.1934991926e-01    1.0123077344e+05
    1.1935977638e-01    1.0123075781e+05
    1.1936993897e-01    1.0123075000e+05
    1.1937980354e-01    1.0123074219e+05
    1.1938996613e-01    1.0123072656e+05
    1.1939983070e-01    1.0123072656e+05
    1.1940999329e-01    1.0123071875e+05
    1.1941985041e-01    1.0123071094e+05
    1.1942971498e-01    1.0123069531e+05
    1.1943987757e-01    1.0123068750e+05
    1.1944974214e-01    1.0123066406e+05
    1.1945990473e-01    1.0123066406e+05
    1.1946976930e-01    1.0123065625e+05
    1.1947992444e-01    1.0123064844e+05
    1.1948978901e-01    1.0123063281e+05
    1.1949995160e-01    1.0123062500e+05
    1.1950981617e-01    1.0123060156e+05
    1.1951997876e-01    1.0123060156e+05
    1.1952984333e-01    1.0123059375e+05
    1.1953970045e-01    1.0123058594e+05
    1.1954986304e-01    1.0123057031e+05
    1.1955972761e-01    1.0123056250e+05
    1.1956989020e-01    1.0123055469e+05
    1.1957975477e-01    1.0123053906e+05
    1.1958991736e-01    1.0123053125e+05
    1.1959977448e-01    1.0123052344e+05
    1.1960993707e-01    1.0123052344e+05
    1.1961980164e-01    1.0123050781e+05
    1.1962996423e-01    1.0123049219e+05
    1.1963982880e-01    1.0123047656e+05
    1.1964999139e-01    1.0123047656e+05
    1.1965985596e-01    1.0123046094e+05
    1.1966971308e-01    1.0123046094e+05
    1.1967987567e-01    1.0123044531e+05
    1.1968974024e-01    1.0123042969e+05
    1.1969990283e-01    1.0123041406e+05
    1.1970976740e-01    1.0123041406e+05
    1.1971992999e-01    1.0123040625e+05
    1.1972978711e-01    1.0123039844e+05
    1.1973994970e-01    1.0123039844e+05
    1.1974981427e-01    1.0123038281e+05
    1.1975997686e-01    1.0123037500e+05
    1.1976984143e-01    1.0123036719e+05
    1.1977970600e-01    1.0123035156e+05
    1.1978986114e-01    1.0123034375e+05
    1.1979972571e-01    1.0123033594e+05
    1.1980988830e-01    1.0123033594e+05
    1.1981975287e-01    1.0123031250e+05
    1.1982991546e-01    1.0123030469e+05
    1.1983978003e-01    1.0123028906e+05
    1.1984994262e-01    1.0123028125e+05
    1.1985979974e-01    1.0123027344e+05
    1.1986996233e-01    1.0123025781e+05
    1.1987982690e-01    1.0123025000e+05
    1.1988998950e-01    1.0123024219e+05
    1.1989985406e-01    1.0123022656e+05
    1.1990971863e-01    1.0123022656e+05
    1.1991987377e-01    1.0123021875e+05
    1.1992973834e-01    1.0123021094e+05
    1.1993990093e-01    1.0123019531e+05
    1.1994976550e-01    1.0123018750e+05
    1.1995992810e-01    1.0123017969e+05
    1.1996979266e-01    1.0123016406e+05
    1.1997994781e-01    1.0123015625e+05
    1.1998981237e-01    1.0123014844e+05
    1.1999997497e-01    1.0123013281e+05
endcurve
