Curveplot
LS-DYNA keyword deck by LS-PrePost                          
Time
Pressure
Defined Connection
Pressure @ 1 #pts=12001
* Minval=     3.4591906738e+02 at time=         0.0019499309
* Maxval=     3.8681597500e+06 at time=         0.0003099937
    0.0000000000e+00    1.0120000000e+05
    9.9485332612e-06    1.0120000000e+05
    1.9948833142e-05    1.0120000000e+05
    2.9981119951e-05    1.0120000000e+05
    3.9986003685e-05    1.0120000000e+05
    4.9952435802e-05    1.0120000000e+05
    5.9952359152e-05    1.0120000000e+05
    6.9939240348e-05    1.0120000000e+05
    7.9997800640e-05    1.0120000000e+05
    8.9971857960e-05    1.0120000000e+05
    9.9984012195e-05    1.0120000000e+05
    1.0994594049e-04    1.0120000000e+05
    1.1999316484e-04    1.0120000000e+05
    1.2995842553e-04    1.0120000000e+05
    1.3998545182e-04    1.0120000000e+05
    1.4998362167e-04    1.0120000000e+05
    1.5993912530e-04    1.0120000000e+05
    1.6992384917e-04    1.0120000000e+05
    1.7992884386e-04    1.0120000000e+05
    1.8994472339e-04    1.0120000000e+05
    1.9996121409e-04    1.0120000000e+05
    2.0996794046e-04    1.0120000000e+05
    2.1995491988e-04    1.0120000000e+05
    2.2990682919e-04    1.0120000000e+05
    2.3999383848e-04    1.0120000000e+05
    2.4991892860e-04    1.0120000000e+05
    2.5997124612e-04    1.0120000000e+05
    2.6995202643e-04    1.0120000000e+05
    2.7995710843e-04    1.0120000000e+05
    2.8998442576e-04    1.0120000000e+05
    2.9992815689e-04    1.0120000000e+05
    3.0999374576e-04    3.8681597500e+06
    3.1997004407e-04    3.4122587500e+06
    3.2995920628e-04    3.0615427500e+06
    3.3995954436e-04    2.8287792500e+06
    3.4996986506e-04    2.6353865000e+06
    3.5998778185e-04    2.4663482500e+06
    3.6989900400e-04    2.3180125000e+06
    3.7992658326e-04    2.0513643750e+06
    3.8995649084e-04    1.7078176250e+06
    3.9998674765e-04    1.4236331250e+06
    4.0989677655e-04    1.1896716250e+06
    4.1991981561e-04    5.4242292969e+04
    4.2993651005e-04    5.3372863281e+04
    4.3994787848e-04    5.2196832031e+04
    4.4994984637e-04    5.0763406250e+04
    4.5994037646e-04    4.9142781250e+04
    4.6991760610e-04    4.7391902344e+04
    4.7987839207e-04    4.5545738281e+04
    4.8994866665e-04    4.3627140625e+04
    4.9987435341e-04    4.1713078125e+04
    5.0991069293e-04    3.9780398438e+04
    5.1992555382e-04    3.7883425781e+04
    5.2991672419e-04    3.6033308594e+04
    5.3988170112e-04    3.4245078125e+04
    5.4995395476e-04    3.2507212891e+04
    5.5986054940e-04    3.0870242188e+04
    5.6987529388e-04    2.9292880859e+04
    5.7985680178e-04    2.7801937500e+04
    5.8994733263e-04    2.6376384766e+04
    5.9985578991e-04    2.5053720703e+04
    6.0987094184e-04    2.3792474609e+04
    6.1999453465e-04    2.2593271484e+04
    6.2992610037e-04    2.1488503906e+04
    6.3995999517e-04    2.0440580078e+04
    6.4995064167e-04    1.9460285156e+04
    6.5989134600e-04    1.8542167969e+04
    6.6993688233e-04    1.7667503906e+04
    6.7992944969e-04    1.6846125000e+04
    6.8986596307e-04    1.6074088867e+04
    6.9990579505e-04    1.5336854492e+04
    7.0988613879e-04    1.4644445312e+04
    7.1996974293e-04    1.3983063477e+04
    7.2999036638e-04    1.3360926758e+04
    7.3994463310e-04    1.2775290039e+04
    7.4999534991e-04    1.2215011719e+04
    7.5998093234e-04    1.1687512695e+04
    7.6989270747e-04    1.1190725586e+04
    7.7990355203e-04    1.0714157227e+04
    7.8983657295e-04    1.0264674805e+04
    7.9986813944e-04    9.8329736328e+03
    8.0999970669e-04    9.4184345703e+03
    8.1986567238e-04    9.0344267578e+03
    8.2982733147e-04    8.6653505859e+03
    8.3988654660e-04    8.3106621094e+03
    8.4985553985e-04    7.9760209961e+03
    8.5992144886e-04    7.6542143555e+03
    8.6989311967e-04    7.3504750977e+03
    8.7996118236e-04    7.0581777344e+03
    8.8993075769e-04    6.7822182617e+03
    8.9999579359e-04    6.5165156250e+03
    9.0995652135e-04    6.2656723633e+03
    9.1980269644e-04    6.0289741211e+03
    9.2994578881e-04    5.7962304688e+03
    9.3998690136e-04    5.5763750000e+03
    9.4991887454e-04    5.3686894531e+03
    9.5994450385e-04    5.1684145508e+03
    9.6985319396e-04    4.9792578125e+03
    9.7985472530e-04    4.7967290039e+03
    9.8995049484e-04    4.6206098633e+03
    9.9992461037e-04    4.4542241211e+03
    1.0099920910e-03    4.2935688477e+03
    1.0199326789e-03    4.1417641602e+03
    1.0299660498e-03    3.9950817871e+03
    1.0398671729e-03    3.8564562988e+03
    1.0498601478e-03    3.7224123535e+03
    1.0599475354e-03    3.5927956543e+03
    1.0698958067e-03    3.4702941895e+03
    1.0799375596e-03    3.3517556152e+03
    1.0898377514e-03    3.2396745605e+03
    1.0998283979e-03    3.1311640625e+03
    1.1099115945e-03    3.0261064453e+03
    1.1198471766e-03    2.9267648926e+03
    1.1298749596e-03    2.8305080566e+03
    1.1399947107e-03    2.7372617188e+03
    1.1499599786e-03    2.6490864258e+03
    1.1597655248e-03    2.5656926270e+03
    1.1699156603e-03    2.4827304688e+03
    1.1799039785e-03    2.4042790527e+03
    1.1899854289e-03    2.3281560059e+03
    1.1998999398e-03    2.2561596680e+03
    1.2099064188e-03    2.1862495117e+03
    1.2197396718e-03    2.1201254883e+03
    1.2299324153e-03    2.0541596680e+03
    1.2399500702e-03    1.9917720947e+03
    1.2497880962e-03    1.9327596436e+03
    1.2599930633e-03    1.8738043213e+03
    1.2697371421e-03    1.8195677490e+03
    1.2798525859e-03    1.7652978516e+03
    1.2897719862e-03    1.7140047607e+03
    1.2997852173e-03    1.6640811768e+03
    1.3098906493e-03    1.6155084229e+03
    1.3198086526e-03    1.5695269775e+03
    1.3298197882e-03    1.5247437744e+03
    1.3399266172e-03    1.4811256104e+03
    1.3498287881e-03    1.4398773193e+03
    1.3598246733e-03    1.3996724854e+03
    1.3699156698e-03    1.3604846191e+03
    1.3797944412e-03    1.3234298096e+03
    1.3897668105e-03    1.2872844238e+03
    1.3998348732e-03    1.2520256348e+03
    1.4096815139e-03    1.2186936035e+03
    1.4199441066e-03    1.1851166992e+03
    1.4299832983e-03    1.1533746338e+03
    1.4397923369e-03    1.1233745117e+03
    1.4496952062e-03    1.0940631104e+03
    1.4596937690e-03    1.0654265137e+03
    1.4697908191e-03    1.0374470215e+03
    1.4799882192e-03    1.0101110229e+03
    1.4899432426e-03    9.8428302002e+02
    1.4999965206e-03    9.5902801514e+02
    1.5097931027e-03    9.3518902588e+02
    1.5196910826e-03    9.1184747314e+02
    1.5296873171e-03    8.8900567627e+02
    1.5397843672e-03    8.6665301514e+02
    1.5499842120e-03    8.4477764893e+02
    1.5599196777e-03    8.2412713623e+02
    1.5699559590e-03    8.0390191650e+02
    1.5797175001e-03    7.8481958008e+02
    1.5899585560e-03    7.6540350342e+02
    1.5999225434e-03    7.4708422852e+02
    1.6099894419e-03    7.2912744141e+02
    1.6197685618e-03    7.1219604492e+02
    1.6296479153e-03    6.9558642578e+02
    1.6396300634e-03    6.7929223633e+02
    1.6497133765e-03    6.6331323242e+02
    1.6599090304e-03    6.4763055420e+02
    1.6698011896e-03    6.3285443115e+02
    1.6797988210e-03    6.1834637451e+02
    1.6899041366e-03    6.0410107422e+02
    1.6996928025e-03    5.9069128418e+02
    1.7095856601e-03    5.7751428223e+02
    1.7195667606e-03    5.6458734131e+02
    1.7296150327e-03    5.5193426514e+02
    1.7397209303e-03    5.3956634521e+02
    1.7498723464e-03    5.2749377441e+02
    1.7596097896e-03    5.1622509766e+02
    1.7698061420e-03    5.0472384644e+02
    1.7795703607e-03    4.9401229858e+02
    1.7898186343e-03    4.8312222290e+02
    1.7995827366e-03    4.7295565796e+02
    1.8098232104e-03    4.6262948608e+02
    1.8195851007e-03    4.5302865601e+02
    1.8297953065e-03    4.4325061035e+02
    1.8395665102e-03    4.3414096069e+02
    1.8497770652e-03    4.2486959839e+02
    1.8599760951e-03    4.1586901855e+02
    1.8697305350e-03    4.0747106934e+02
    1.8799382960e-03    3.9892822266e+02
    1.8897170667e-03    3.9092282104e+02
    1.8998534651e-03    3.8285482788e+02
    1.9099973142e-03    3.7497396851e+02
    1.9197264919e-03    3.6762533569e+02
    1.9298769766e-03    3.6012820435e+02
    1.9397004507e-03    3.5309188843e+02
    1.9499309128e-03    3.4591906738e+02
    1.9597371574e-03    4.2317648315e+02
    1.9695989322e-03    2.4148343750e+04
    1.9799256697e-03    2.4424494141e+04
    1.9898165483e-03    2.4694724609e+04
    1.9997358322e-03    2.4968929688e+04
    2.0096725784e-03    2.5244601562e+04
    2.0196167752e-03    2.5520669922e+04
    2.0295623690e-03    2.5797080078e+04
    2.0399722271e-03    2.6087453125e+04
    2.0499075763e-03    2.6364867188e+04
    2.0598066039e-03    2.6642923828e+04
    2.0696970169e-03    2.6922041016e+04
    2.0799925551e-03    2.7213638672e+04
    2.0897958893e-03    2.7492681641e+04
    2.0999808330e-03    2.7783875000e+04
    2.1096498240e-03    2.8060890625e+04
    2.1196701564e-03    2.8348031250e+04
    2.1296015475e-03    2.8632787109e+04
    2.1398719400e-03    2.8927804688e+04
    2.1496261470e-03    2.9208349609e+04
    2.1597151645e-03    2.9498482422e+04
    2.1697140764e-03    2.9786132812e+04
    2.1796245128e-03    3.0071392578e+04
    2.1898550913e-03    3.0365595703e+04
    2.1999930032e-03    3.0656759766e+04
    2.2096391767e-03    3.0933994141e+04
    2.2199957166e-03    3.1231984375e+04
    2.2298633121e-03    3.1515882812e+04
    2.2396435961e-03    3.1797037109e+04
    2.2497235332e-03    3.2086677734e+04
    2.2597122006e-03    3.2373822266e+04
    2.2699886467e-03    3.2669244141e+04
    2.2797938436e-03    3.2950878906e+04
    2.2898833267e-03    3.3240621094e+04
    2.2998787463e-03    3.3527851562e+04
    2.3097814992e-03    3.3812800781e+04
    2.3199541029e-03    3.4105804688e+04
    2.3296715226e-03    3.4385105469e+04
    2.3396539036e-03    3.4671113281e+04
    2.3498928640e-03    3.4964421875e+04
    2.3596833926e-03    3.5245867188e+04
    2.3697249126e-03    3.5535230469e+04
    2.3796677124e-03    3.5821421875e+04
    2.3898498621e-03    3.6114031250e+04
    2.3999284022e-03    3.6403621094e+04
    2.4099035654e-03    3.6690230469e+04
    2.4197762832e-03    3.6973917969e+04
    2.4298720527e-03    3.7264269531e+04
    2.4398597889e-03    3.7551746094e+04
    2.4497406557e-03    3.7835890625e+04
    2.4598287418e-03    3.8125734375e+04
    2.4698039051e-03    3.8412707031e+04
    2.4799734820e-03    3.8705777344e+04
    2.4897211697e-03    3.8986589844e+04
    2.4999566376e-03    3.9280925781e+04
    2.5097713806e-03    3.9562871094e+04
    2.5197602808e-03    3.9850203125e+04
    2.5299126282e-03    4.0142714844e+04
    2.5399329606e-03    4.0431312500e+04
    2.5498210452e-03    4.0715875000e+04
    2.5598539505e-03    4.1004550781e+04
    2.5697464589e-03    4.1289273438e+04
    2.5797674898e-03    4.1577890625e+04
    2.5899042375e-03    4.1869988281e+04
    2.5998831261e-03    4.2157558594e+04
    2.6099593379e-03    4.2447746094e+04
    2.6198669802e-03    4.2733105469e+04
    2.6298516896e-03    4.3021031250e+04
    2.6398980990e-03    4.3311101562e+04
    2.6499901433e-03    4.3602433594e+04
    2.6598770637e-03    4.3887656250e+04
    2.6697833091e-03    4.4173562500e+04
    2.6799116749e-03    4.4465980469e+04
    2.6897902135e-03    4.4750863281e+04
    2.6998342946e-03    4.5040574219e+04
    2.7099985164e-03    4.5334957031e+04
    2.7198377065e-03    4.5620753906e+04
    2.7299083304e-03    4.5912894531e+04
    2.7399405371e-03    4.6203203125e+04
    2.7498570271e-03    4.6490378906e+04
    2.7598864399e-03    4.6781707031e+04
    2.7699838392e-03    4.7075265625e+04
    2.7799627278e-03    4.7365531250e+04
    2.7899015695e-03    4.7655136719e+04
    2.7999691665e-03    4.7945937500e+04
    2.8098758776e-03    4.8232027344e+04
    2.8199611697e-03    4.8525355469e+04
    2.8299589176e-03    4.8815707031e+04
    2.8399818111e-03    4.9106582031e+04
    2.8498552274e-03    4.9393308594e+04
    2.8598993085e-03    4.9686187500e+04
    2.8698260430e-03    4.9975453125e+04
    2.8799301945e-03    5.0270808594e+04
    2.8898988385e-03    5.0561800781e+04
    2.8998423368e-03    5.0852738281e+04
    2.9099686071e-03    5.1150109375e+04
    2.9199332930e-03    5.1441066406e+04
    2.9298299924e-03    5.1727886719e+04
    2.9398845509e-03    5.2027925781e+04
    2.9499861412e-03    5.2330699219e+04
    2.9598053079e-03    5.2607652344e+04
    2.9699341394e-03    5.2894457031e+04
    2.9799321201e-03    5.3208214844e+04
    2.9898269568e-03    5.3518863281e+04
    2.9997869860e-03    5.3792839844e+04
    3.0098399147e-03    5.4061066406e+04
    3.0199619941e-03    5.4363718750e+04
    3.0299394857e-03    5.4687890625e+04
    3.0399933457e-03    5.5001269531e+04
    3.0498853885e-03    5.5288593750e+04
    3.0598402955e-03    5.5569281250e+04
    3.0698541086e-03    5.5858855469e+04
    3.0799228698e-03    5.6158082031e+04
    3.0898256227e-03    5.6450375000e+04
    3.0997877475e-03    5.6744675781e+04
    3.1097850297e-03    5.7044636719e+04
    3.1198395882e-03    5.7347734375e+04
    3.1299579423e-03    5.7653355469e+04
    3.1398616266e-03    5.7952312500e+04
    3.1498323660e-03    5.8251832031e+04
    3.1598520000e-03    5.8552847656e+04
    3.1698939856e-03    5.8852941406e+04
    3.1799888238e-03    5.9153902344e+04
    3.1898855232e-03    5.9448667969e+04
    3.1998204067e-03    5.9746183594e+04
    3.2098107040e-03    6.0045941406e+04
    3.2198033296e-03    6.0343863281e+04
    3.2298557926e-03    6.0649328125e+04
    3.2399417832e-03    6.0960687500e+04
    3.2498082146e-03    6.1267324219e+04
    3.2599796541e-03    6.1578988281e+04
    3.2699082512e-03    6.1870917969e+04
    3.2798722386e-03    6.2161175781e+04
    3.2898837235e-03    6.2469750000e+04
    3.2998954412e-03    6.2788265625e+04
    3.3099737484e-03    6.3096316406e+04
    3.3198164310e-03    6.3385894531e+04
    3.3299091738e-03    6.3688566406e+04
    3.3398326486e-03    6.4000078125e+04
    3.3499840647e-03    6.4320890625e+04
    3.3599147573e-03    6.4619417969e+04
    3.3699059859e-03    6.4916457031e+04
    3.3798681106e-03    6.5231488281e+04
    3.3898754045e-03    6.5548804688e+04
    3.3999220468e-03    6.5847812500e+04
    3.4099400509e-03    6.6151882812e+04
    3.4197606146e-03    6.6467000000e+04
    3.4298431128e-03    6.6779187500e+04
    3.4399230499e-03    6.7081414062e+04
    3.4497892484e-03    6.7395171875e+04
    3.4599124920e-03    6.7715742188e+04
    3.4697880037e-03    6.8012937500e+04
    3.4799398854e-03    6.8332953125e+04
    3.4898419399e-03    6.8649515625e+04
    3.4997484181e-03    6.8950867188e+04
    3.5099179950e-03    6.9271398438e+04
    3.5198349506e-03    6.9587937500e+04
    3.5297528375e-03    6.9893242188e+04
    3.5399268381e-03    7.0216882812e+04
    3.5498461220e-03    7.0532492188e+04
    3.5597668029e-03    7.0842093750e+04
    3.5699410364e-03    7.1167312500e+04
    3.5798586905e-03    7.1481476562e+04
    3.5897814669e-03    7.1795179688e+04
    3.5999575630e-03    7.2122500000e+04
    3.6098761484e-03    7.2437078125e+04
    3.6198047455e-03    7.2752437500e+04
    3.6299934145e-03    7.3078054688e+04
    3.6399238743e-03    7.3398882812e+04
    3.6498652771e-03    7.3726125000e+04
    3.6598183215e-03    7.4050390625e+04
    3.6697729956e-03    7.4370500000e+04
    3.6799879745e-03    7.4697343750e+04
    3.6899647675e-03    7.5017429688e+04
    3.6999487784e-03    7.5341875000e+04
    3.7099386100e-03    7.5668812500e+04
    3.7199400831e-03    7.5996976562e+04
    3.7299538963e-03    7.6324867188e+04
    3.7399774883e-03    7.6651585938e+04
    3.7497542799e-03    7.6969828125e+04
    3.7597923074e-03    7.7298578125e+04
    3.7698505912e-03    7.7632289062e+04
    3.7799172569e-03    7.7970062500e+04
    3.7899869494e-03    7.8309734375e+04
    3.7998121697e-03    7.8640281250e+04
    3.8099167868e-03    7.8977359375e+04
    3.8197573740e-03    7.9304062500e+04
    3.8298706058e-03    7.9641093750e+04
    3.8397430908e-03    7.9973609375e+04
    3.8498826325e-03    8.0319796875e+04
    3.8597609382e-03    8.0658671875e+04
    3.8699191064e-03    8.1004937500e+04
    3.8798272144e-03    8.1341781250e+04
    3.8897462655e-03    8.1681406250e+04
    3.8999216631e-03    8.2033179688e+04
    3.9098570123e-03    8.2378132812e+04
    3.9198058657e-03    8.2723351562e+04
    3.9297575131e-03    8.3069773438e+04
    3.9399717934e-03    8.3428007812e+04
    3.9499527775e-03    8.3779320312e+04
    3.9599318989e-03    8.4131476562e+04
    3.9699161425e-03    8.4485242188e+04
    3.9799050428e-03    8.4840945312e+04
    3.9899172261e-03    8.5199804688e+04
    3.9999266155e-03    8.5560437500e+04
    4.0099401958e-03    8.5922632812e+04
    4.0199658833e-03    8.6287242188e+04
    4.0297503583e-03    8.6644500000e+04
    4.0397844277e-03    8.7013148438e+04
    4.0498315357e-03    8.7384476562e+04
    4.0598940104e-03    8.7758718750e+04
    4.0699704550e-03    8.8135742188e+04
    4.0797744878e-03    8.8504531250e+04
    4.0898402222e-03    8.8885226562e+04
    4.0999390185e-03    8.9269539062e+04
    4.1097779758e-03    8.9646398438e+04
    4.1198753752e-03    9.0036367188e+04
    4.1299718432e-03    9.0428820312e+04
    4.1398326866e-03    9.0814882812e+04
    4.1499561630e-03    9.1214031250e+04
    4.1598211974e-03    9.1606085938e+04
    4.1699451394e-03    9.2012093750e+04
    4.1798339225e-03    9.2411851562e+04
    4.1899750941e-03    9.2825210938e+04
    4.1998717934e-03    9.3232039062e+04
    4.2097526602e-03    9.3641648438e+04
    4.2199324816e-03    9.4067820312e+04
    4.2298329063e-03    9.4486539062e+04
    4.2397500947e-03    9.4910343750e+04
    4.2499336414e-03    9.5350351562e+04
    4.2598582804e-03    9.5783773438e+04
    4.2697768658e-03    9.6221398438e+04
    4.2799827643e-03    9.6676179688e+04
    4.2899376713e-03    9.7125125000e+04
    4.2998911813e-03    9.7579687500e+04
    4.3098316528e-03    9.8040023438e+04
    4.3197744526e-03    9.8506539062e+04
    4.3297442608e-03    9.8980789062e+04
    4.3399906717e-03    9.9474898438e+04
    4.3499767780e-03    9.9963382812e+04
    4.3599600904e-03    1.0045941406e+05
    4.3699410744e-03    1.0096357031e+05
    4.3799174018e-03    1.0147600781e+05
    4.3898946606e-03    1.0217778125e+05
    4.3998737819e-03    2.1921329688e+05
    4.4098622166e-03    2.2033756250e+05
    4.4198557734e-03    2.1884181250e+05
    4.4298474677e-03    2.1731210938e+05
    4.4398372993e-03    2.1582151562e+05
    4.4498257339e-03    2.1438070312e+05
    4.4598141685e-03    2.1295554688e+05
    4.4698016718e-03    2.1156525000e+05
    4.4797901064e-03    2.1020304688e+05
    4.4897790067e-03    2.0886676562e+05
    4.4997669756e-03    2.0755898438e+05
    4.5097544789e-03    2.0627795312e+05
    4.5197415166e-03    2.0502350000e+05
    4.5299991034e-03    2.0376282812e+05
    4.5399866067e-03    2.0256137500e+05
    4.5499736443e-03    2.0138289062e+05
    4.5599602163e-03    2.0022737500e+05
    4.5699472539e-03    1.9909345312e+05
    4.5799333602e-03    1.9798168750e+05
    4.5899199322e-03    1.9689345312e+05
    4.5999041758e-03    1.9582951562e+05
    4.6098940074e-03    1.9478785938e+05
    4.6198791824e-03    1.9376762500e+05
    4.6298694797e-03    1.9276670312e+05
    4.6398616396e-03    1.9178287500e+05
    4.6498659067e-03    1.9081637500e+05
    4.6598692425e-03    1.8986975000e+05
    4.6698758379e-03    1.8894207812e+05
    4.6798922122e-03    1.8803295312e+05
    4.6899169683e-03    1.8714229688e+05
    4.6999501064e-03    1.8626867188e+05
    4.7099869698e-03    1.8541167188e+05
    4.7197542153e-03    1.8459381250e+05
    4.7297920100e-03    1.8376939062e+05
    4.7398293391e-03    1.8296264062e+05
    4.7498634085e-03    1.8217364062e+05
    4.7599026002e-03    1.8139720312e+05
    4.7699455172e-03    1.8063868750e+05
    4.7799972817e-03    1.7989323438e+05
    4.7897803597e-03    1.7918648438e+05
    4.7998349182e-03    1.7847145312e+05
    4.8098876141e-03    1.7776992188e+05
    4.8199393786e-03    1.7708248438e+05
    4.8299906775e-03    1.7640750000e+05
    4.8397723585e-03    1.7576195312e+05
    4.8498292454e-03    1.7511217188e+05
    4.8598861322e-03    1.7447250000e+05
    4.8699411564e-03    1.7384604688e+05
    4.8799957149e-03    1.7322910938e+05
    4.8897769302e-03    1.7263784375e+05
    4.8998342827e-03    1.7203360938e+05
    4.9098934978e-03    1.7143446875e+05
    4.9199508503e-03    1.7083971875e+05
    4.9297357909e-03    1.7026512500e+05
    4.9397912808e-03    1.6967496875e+05
    4.9498514272e-03    1.6908487500e+05
    4.9599125050e-03    1.6849495312e+05
    4.9699717201e-03    1.6790315625e+05
    4.9797585234e-03    1.6732339062e+05
    4.9898182042e-03    1.6672515625e+05
    4.9998820759e-03    1.6612579688e+05
    5.0099440850e-03    1.6552323438e+05
    5.0197336823e-03    1.6493467188e+05
    5.0297938287e-03    1.6432943750e+05
    5.0398590975e-03    1.6372325000e+05
    5.0499229692e-03    1.6311496875e+05
    5.0599863753e-03    1.6250900000e+05
    5.0697773695e-03    1.6191993750e+05
    5.0798431039e-03    1.6131337500e+05
    5.0899083726e-03    1.6071214062e+05
    5.0999727100e-03    1.6011062500e+05
    5.1097655669e-03    1.5952925000e+05
    5.1198322326e-03    1.5893367188e+05
    5.1298979670e-03    1.5834073438e+05
    5.1399637014e-03    1.5775026562e+05
    5.1497574896e-03    1.5717795312e+05
    5.1598232239e-03    1.5659365625e+05
    5.1698884927e-03    1.5601226562e+05
    5.1799532957e-03    1.5543432812e+05
    5.1897466183e-03    1.5487568750e+05
    5.1998114213e-03    1.5430381250e+05
    5.2098757587e-03    1.5373557812e+05
    5.2199400961e-03    1.5317104688e+05
    5.2297324874e-03    1.5262532812e+05
    5.2397968248e-03    1.5206765625e+05
    5.2498616278e-03    1.5151340625e+05
    5.2599264309e-03    1.5096168750e+05
    5.2699903026e-03    1.5041179688e+05
    5.2797817625e-03    1.4987807812e+05
    5.2898447029e-03    1.4933337500e+05
    5.2999076433e-03    1.4879412500e+05
    5.3099701181e-03    1.4826335938e+05
    5.3197611123e-03    1.4775359375e+05
    5.3298235871e-03    1.4723053125e+05
    5.3398855962e-03    1.4670448438e+05
    5.3499471396e-03    1.4617348438e+05
    5.3597367369e-03    1.4565673438e+05
    5.3697973490e-03    1.4513198438e+05
    5.3798579611e-03    1.4461526562e+05
    5.3899181075e-03    1.4410428125e+05
    5.3999782540e-03    1.4359570312e+05
    5.4097669199e-03    1.4310312500e+05
    5.4198279977e-03    1.4259973438e+05
    5.4298890755e-03    1.4210043750e+05
    5.4399496876e-03    1.4160546875e+05
    5.4497378878e-03    1.4112917188e+05
    5.4597971030e-03    1.4063979688e+05
    5.4698558524e-03    1.4014860938e+05
    5.4799141362e-03    1.3965576562e+05
    5.4899719544e-03    1.3915987500e+05
    5.4997592233e-03    1.3867643750e+05
    5.5098198354e-03    1.3818270312e+05
    5.5198795162e-03    1.3769465625e+05
    5.5299387313e-03    1.3721793750e+05
    5.5399993435e-03    1.3675059375e+05
    5.5497880094e-03    1.3630004688e+05
    5.5598486215e-03    1.3583439062e+05
    5.5699087679e-03    1.3536054688e+05
    5.5799754336e-03    1.3487959375e+05
    5.5897757411e-03    1.3441303125e+05
    5.5998456664e-03    1.3394248438e+05
    5.6099174544e-03    1.3348365625e+05
    5.6199994870e-03    1.3303214062e+05
    5.6298226118e-03    1.3259045312e+05
    5.6399237365e-03    1.3212850000e+05
    5.6497519836e-03    1.3167332812e+05
    5.6598628871e-03    1.3120696875e+05
    5.6699910201e-03    1.3074824219e+05
    5.6798523292e-03    1.3031211719e+05
    5.6899953634e-03    1.2986753125e+05
    5.6998725049e-03    1.2943024219e+05
    5.7097566314e-03    1.2898489844e+05
    5.7199262083e-03    1.2852337500e+05
    5.7298284955e-03    1.2807910156e+05
    5.7397396304e-03    1.2764464844e+05
    5.7499390095e-03    1.2720839844e+05
    5.7598636486e-03    1.2678471094e+05
    5.7697985321e-03    1.2635146094e+05
    5.7797469199e-03    1.2590674219e+05
    5.7899765670e-03    1.2544371875e+05
    5.7999407873e-03    1.2499921094e+05
    5.8099045418e-03    1.2456916406e+05
    5.8198771439e-03    1.2414949219e+05
    5.8298683725e-03    1.2373064844e+05
    5.8398609981e-03    1.2330978906e+05
    5.8498615399e-03    1.2288955469e+05
    5.8598699979e-03    1.2247315625e+05
    5.8698807843e-03    1.2205569531e+05
    5.8799097314e-03    1.2162124219e+05
    5.8899424039e-03    1.2116703125e+05
    5.8999764733e-03    1.2071117969e+05
    5.9097455814e-03    1.2028607031e+05
    5.9197945520e-03    1.1987422656e+05
    5.9298551641e-03    1.1947960156e+05
    5.9399288148e-03    1.1908168750e+05
    5.9499954805e-03    1.1866216406e+05
    5.9597967193e-03    1.1823712500e+05
    5.9698852710e-03    1.1779949219e+05
    5.9799766168e-03    1.1736983594e+05
    5.9898053296e-03    1.1695991406e+05
    5.9999097139e-03    1.1654582031e+05
    6.0097374953e-03    1.1614778125e+05
    6.0198646970e-03    1.1573803906e+05
    6.0299877077e-03    1.1532749219e+05
    6.0398429632e-03    1.1492739844e+05
    6.0499873944e-03    1.1451560156e+05
    6.0598398559e-03    1.1411378125e+05
    6.0699945316e-03    1.1369635156e+05
    6.0798726045e-03    1.1328896875e+05
    6.0897520743e-03    1.1288312500e+05
    6.0999342240e-03    1.1246843750e+05
    6.1098230071e-03    1.1206768750e+05
    6.1197178438e-03    1.1166634375e+05
    6.1299148947e-03    1.1124903125e+05
    6.1398199759e-03    1.1083750000e+05
    6.1497399583e-03    1.1041971875e+05
    6.1599523760e-03    1.0998800781e+05
    6.1698718928e-03    1.0957178125e+05
    6.1798105016e-03    1.0915946875e+05
    6.1897519045e-03    1.0875216406e+05
    6.1999759637e-03    1.0833796875e+05
    6.2099355273e-03    1.0793725781e+05
    6.2198862433e-03    1.0753985156e+05
    6.2298425473e-03    1.0714458594e+05
    6.2398170121e-03    1.0674631250e+05
    6.2497849576e-03    1.0634464844e+05
    6.2597636133e-03    1.0593885156e+05
    6.2697539106e-03    1.0553460156e+05
    6.2797344290e-03    1.0513218750e+05
    6.2897289172e-03    1.0474240625e+05
    6.2997280620e-03    1.0436550781e+05
    6.3097276725e-03    1.0399218750e+05
    6.3197449781e-03    1.0359853906e+05
    6.3297604211e-03    1.0314872656e+05
    6.3397781923e-03    1.0259917969e+05
    6.3498066738e-03    1.0191383594e+05
    6.3598323613e-03    1.0109005469e+05
    6.3698664308e-03    1.0015453906e+05
    6.3799102791e-03    9.9144945312e+04
    6.3899536617e-03    9.8093875000e+04
    6.3997185789e-03    9.7060304688e+04
    6.4097801223e-03    9.6004070312e+04
    6.4198407345e-03    9.4964617188e+04
    6.4299078658e-03    9.3934445312e+04
    6.4399763942e-03    9.2906304688e+04
    6.4497599378e-03    9.1916039062e+04
    6.4598433673e-03    9.0919273438e+04
    6.4699291252e-03    8.9947195312e+04
    6.4797308296e-03    8.9012898438e+04
    6.4898291603e-03    8.8054687500e+04
    6.4999274909e-03    8.7112054688e+04
    6.5097450279e-03    8.6219898438e+04
    6.5198554657e-03    8.5317304688e+04
    6.5299700946e-03    8.4419070312e+04
    6.5398020670e-03    8.3556562500e+04
    6.5499288030e-03    8.2690867188e+04
    6.5597705543e-03    8.1866210938e+04
    6.5699047409e-03    8.1022507812e+04
    6.5797506832e-03    8.0211671875e+04
    6.5898951143e-03    7.9397000000e+04
    6.5997606143e-03    7.8619445312e+04
    6.6099190153e-03    7.7824156250e+04
    6.6197882406e-03    7.7063062500e+04
    6.6299512982e-03    7.6297648438e+04
    6.6398279741e-03    7.5564179688e+04
    6.6497134976e-03    7.4837250000e+04
    6.6598942503e-03    7.4104546875e+04
    6.6697932780e-03    7.3407195312e+04
    6.6799898632e-03    7.2700078125e+04
    6.6898982041e-03    7.2028070312e+04
    6.6998079419e-03    7.1376453125e+04
    6.7097200081e-03    7.0746789062e+04
    6.7199296318e-03    7.0132054688e+04
    6.7298547365e-03    6.9594562500e+04
    6.7397886887e-03    6.9195179688e+04
    6.7497272976e-03    6.9018109375e+04
    6.7599625327e-03    6.9024359375e+04
    6.7699048668e-03    6.9065546875e+04
    6.7798551172e-03    6.9011250000e+04
    6.7898114212e-03    6.8774039062e+04
    6.7997733131e-03    6.8471882812e+04
    6.8097407930e-03    6.8283039062e+04
    6.8197152577e-03    6.8189945312e+04
    6.8299872801e-03    6.8072960938e+04
    6.8399677984e-03    6.7902226562e+04
    6.8499501795e-03    6.7729851562e+04
    6.8599432707e-03    6.7593320312e+04
    6.8699456751e-03    6.7462007812e+04
    6.8799508736e-03    6.7316398438e+04
    6.8899607286e-03    6.7178000000e+04
    6.8999761716e-03    6.7061171875e+04
    6.9099976681e-03    6.6954117188e+04
    6.9197267294e-03    6.6849546875e+04
    6.9297538139e-03    6.6740242188e+04
    6.9397906773e-03    6.6629250000e+04
    6.9498354569e-03    6.6520148438e+04
    6.9598848931e-03    6.6419976562e+04
    6.9699366577e-03    6.6331882812e+04
    6.9799940102e-03    6.6252679688e+04
    6.9897645153e-03    6.6179226562e+04
    6.9998330437e-03    6.6103882812e+04
    7.0099048316e-03    6.6029375000e+04
    7.0199859329e-03    6.5959914062e+04
    7.0297787897e-03    6.5900679688e+04
    7.0398710668e-03    6.5847257812e+04
    7.0499666035e-03    6.5797875000e+04
    7.0597748272e-03    6.5750734375e+04
    7.0698852651e-03    6.5702921875e+04
    7.0799984969e-03    6.5658812500e+04
    7.0898188278e-03    6.5621648438e+04
    7.0999469608e-03    6.5588820312e+04
    7.1097812615e-03    6.5560148438e+04
    7.1199177764e-03    6.5532292969e+04
    7.1297599934e-03    6.5507261719e+04
    7.1399118751e-03    6.5484097656e+04
    7.1497731842e-03    6.5463824219e+04
    7.1599399671e-03    6.5445000000e+04
    7.1698129177e-03    6.5428550781e+04
    7.1799866855e-03    6.5413949219e+04
    7.1898610331e-03    6.5401578125e+04
    7.1997381747e-03    6.5390125000e+04
    7.2099207900e-03    6.5379218750e+04
    7.2198128328e-03    6.5369316406e+04
    7.2297179140e-03    6.5360332031e+04
    7.2399294004e-03    6.5352261719e+04
    7.2498433292e-03    6.5345207031e+04
    7.2597558610e-03    6.5339230469e+04
    7.2699743323e-03    6.5333863281e+04
    7.2799040936e-03    6.5328894531e+04
    7.2898385115e-03    6.5323878906e+04
    7.2997766547e-03    6.5318925781e+04
    7.3097231798e-03    6.5314480469e+04
    7.3199705221e-03    6.5310941406e+04
    7.3299137875e-03    6.5308402344e+04
    7.3398589157e-03    6.5306417969e+04
    7.3498212732e-03    6.5304488281e+04
    7.3597906157e-03    6.5302402344e+04
    7.3697646149e-03    6.5300449219e+04
    7.3797465302e-03    6.5299113281e+04
    7.3897377588e-03    6.5298832031e+04
    7.3997359723e-03    6.5299441406e+04
    7.4097407050e-03    6.5300265625e+04
    7.4197538197e-03    6.5300750000e+04
    7.4297711253e-03    6.5300925781e+04
    7.4397833087e-03    6.5301171875e+04
    7.4497973546e-03    6.5301503906e+04
    7.4598086067e-03    6.5301964844e+04
    7.4698254466e-03    6.5302519531e+04
    7.4798543938e-03    6.5302894531e+04
    7.4898912571e-03    6.5303277344e+04
    7.4999332428e-03    6.5303457031e+04
    7.5099761598e-03    6.5302980469e+04
    7.5197112747e-03    6.5301917969e+04
    7.5297453441e-03    6.5300292969e+04
    7.5397896580e-03    6.5298343750e+04
    7.5498376973e-03    6.5296277344e+04
    7.5598927215e-03    6.5293800781e+04
    7.5699542649e-03    6.5290675781e+04
    7.5797117315e-03    6.5287125000e+04
    7.5897732750e-03    6.5282792969e+04
    7.5998296961e-03    6.5277765625e+04
    7.6098893769e-03    6.5272113281e+04
    7.6199593022e-03    6.5265734375e+04
    7.6297353953e-03    6.5258917969e+04
    7.6398174278e-03    6.5251355469e+04
    7.6499050483e-03    6.5242968750e+04
    7.6599917375e-03    6.5233855469e+04
    7.6697682962e-03    6.5224628906e+04
    7.6798535883e-03    6.5215144531e+04
    7.6899393462e-03    6.5205863281e+04
    7.6997242868e-03    6.5196917969e+04
    7.7098184265e-03    6.5186535156e+04
    7.7199134976e-03    6.5174839844e+04
    7.7297063544e-03    6.5162839844e+04
    7.7398074791e-03    6.5149566406e+04
    7.7499072067e-03    6.5135394531e+04
    7.7596995980e-03    6.5120609375e+04
    7.7697965316e-03    6.5104316406e+04
    7.7798920684e-03    6.5088542969e+04
    7.7899862081e-03    6.5074316406e+04
    7.7997739427e-03    6.5060417969e+04
    7.8098666854e-03    6.5044558594e+04
    7.8199589625e-03    6.5027183594e+04
    7.8297453001e-03    6.5009765625e+04
    7.8398352489e-03    6.4992484375e+04
    7.8499261290e-03    6.4974863281e+04
    7.8597115353e-03    6.4956574219e+04
    7.8698042780e-03    6.4937515625e+04
    7.8798979521e-03    6.4918996094e+04
    7.8899944201e-03    6.4901019531e+04
    7.8997835517e-03    6.4883156250e+04
    7.9098772258e-03    6.4863613281e+04
    7.9199736938e-03    6.4842890625e+04
    7.9297665507e-03    6.4821925781e+04
    7.9398686066e-03    6.4800343750e+04
    7.9499771819e-03    6.4779042969e+04
    7.9597802833e-03    6.4758339844e+04
    7.9698869959e-03    6.4737542969e+04
    7.9799974337e-03    6.4717062500e+04
    7.9898079857e-03    6.4696738281e+04
    7.9999342561e-03    6.4674886719e+04
    8.0097727478e-03    6.4653199219e+04
    8.0199223012e-03    6.4631042969e+04
    8.0297617242e-03    6.4609597656e+04
    8.0399150029e-03    6.4587050781e+04
    8.0497572199e-03    6.4565078125e+04
    8.0599160865e-03    6.4542792969e+04
    8.0697890371e-03    6.4521167969e+04
    8.0799777061e-03    6.4498042969e+04
    8.0898627639e-03    6.4475433594e+04
    8.0997487530e-03    6.4453332031e+04
    8.1099364907e-03    6.4430464844e+04
    8.1198308617e-03    6.4408410156e+04
    8.1297401339e-03    6.4386675781e+04
    8.1399763003e-03    6.4363996094e+04
    8.1499135122e-03    6.4341550781e+04
    8.1598572433e-03    6.4318488281e+04
    8.1698037684e-03    6.4295949219e+04
    8.1797568128e-03    6.4275140625e+04
    8.1897219643e-03    6.4255550781e+04
    8.1996927038e-03    6.4235097656e+04
    8.2099800929e-03    6.4211300781e+04
    8.2199638709e-03    6.4186781250e+04
    8.2299439237e-03    6.4163468750e+04
    8.2399351522e-03    6.4142496094e+04
    8.2499375567e-03    6.4122191406e+04
    8.2599474117e-03    6.4100683594e+04
    8.2699647173e-03    6.4078347656e+04
    8.2799894735e-03    6.4056800781e+04
    8.2897003740e-03    6.4036902344e+04
    8.2997232676e-03    6.4016566406e+04
    8.3097498864e-03    6.3995863281e+04
    8.3198416978e-03    6.3974933594e+04
    8.3298562095e-03    6.3954308594e+04
    8.3397924900e-03    6.3933890625e+04
    8.3499792963e-03    6.3913000000e+04
    8.3597097546e-03    6.3893425781e+04
    8.3696572110e-03    6.3873968750e+04
    8.3798151463e-03    6.3854531250e+04
    8.3898091689e-03    6.3835511719e+04
    8.3999959752e-03    6.3816011719e+04
    8.4099853411e-03    6.3797175781e+04
    8.4197558463e-03    6.3779015625e+04
    8.4296874702e-03    6.3760542969e+04
    8.4397802129e-03    6.3742074219e+04
    8.4496205673e-03    6.3724324219e+04
    8.4596080706e-03    6.3706574219e+04
    8.4697380662e-03    6.3688800781e+04
    8.4795691073e-03    6.3671640625e+04
    8.4899589419e-03    6.3652972656e+04
    8.4995981306e-03    6.3635035156e+04
    8.5097895935e-03    6.3616769531e+04
    8.5196420550e-03    6.3601890625e+04
    8.5295923054e-03    6.3589343750e+04
    8.5396310315e-03    6.3575906250e+04
    8.5497377440e-03    6.3558988281e+04
    8.5598994046e-03    6.3539250000e+04
    8.5696429014e-03    6.3520199219e+04
    8.5798967630e-03    6.3502136719e+04
    8.5897492245e-03    6.3487402344e+04
    8.5996435955e-03    6.3475519531e+04
    8.6095994338e-03    6.3465457031e+04
    8.6196316406e-03    6.3454738281e+04
    8.6297011003e-03    6.3442515625e+04
    8.6398012936e-03    6.3429230469e+04
    8.6499853060e-03    6.3415152344e+04
    8.6597427726e-03    6.3401671875e+04
    8.6695021018e-03    6.3388628906e+04
    8.6798695847e-03    6.3375902344e+04
    8.6897304282e-03    6.3364113281e+04
    8.6996713653e-03    6.3352472656e+04
    8.7096607313e-03    6.3341187500e+04
    8.7196910754e-03    6.3330531250e+04
    8.7297316641e-03    6.3320808594e+04
    8.7398625910e-03    6.3312406250e+04
    8.7495576590e-03    6.3304878906e+04
    8.7597584352e-03    6.3297859375e+04
    8.7699908763e-03    6.3291417969e+04
    8.7798079476e-03    6.3284878906e+04
    8.7896306068e-03    6.3277417969e+04
    8.7995529175e-03    6.3270167969e+04
    8.8099427521e-03    6.3262046875e+04
    8.8198734447e-03    6.3254136719e+04
    8.8298525661e-03    6.3246839844e+04
    8.8398419321e-03    6.3240921875e+04
    8.8498517871e-03    6.3236613281e+04
    8.8599724695e-03    6.3234390625e+04
    8.8695194572e-03    6.3233417969e+04
    8.8796578348e-03    6.3233878906e+04
    8.8898139074e-03    6.3236503906e+04
    8.8999625295e-03    6.3244425781e+04
    8.9096929878e-03    6.3258203125e+04
    8.9199030772e-03    6.3280605469e+04
    8.9297136292e-03    6.3304082031e+04
    8.9399525896e-03    6.3322636719e+04
    8.9496951550e-03    6.3331238281e+04
    8.9599061757e-03    6.3331582031e+04
    8.9699327946e-03    6.3330781250e+04
    8.9796278626e-03    6.3335574219e+04
    8.9898733422e-03    6.3347761719e+04
    8.9996177703e-03    6.3361433594e+04
    9.0097440407e-03    6.3373121094e+04
    9.0197278187e-03    6.3383425781e+04
    9.0299043804e-03    6.3397214844e+04
    9.0397922322e-03    6.3415558594e+04
    9.0499939397e-03    6.3436730469e+04
    9.0599851683e-03    6.3457066406e+04
    9.0698795393e-03    6.3477582031e+04
    9.0798642486e-03    6.3500550781e+04
    9.0898824856e-03    6.3526417969e+04
    9.0998718515e-03    6.3554300781e+04
    9.1099152341e-03    6.3582980469e+04
    9.1199688613e-03    6.3611917969e+04
    9.1299759224e-03    6.3639417969e+04
    9.1398973018e-03    6.3666269531e+04
    9.1499891132e-03    6.3694234375e+04
    9.1598853469e-03    6.3723902344e+04
    9.1699296609e-03    6.3756363281e+04
    9.1799264774e-03    6.3790042969e+04
    9.1898823157e-03    6.3824722656e+04
    9.1998660937e-03    6.3861324219e+04
    9.2099150643e-03    6.3901480469e+04
    9.2197982594e-03    6.3944332031e+04
    9.2298900709e-03    6.3989441406e+04
    9.2398123816e-03    6.4033175781e+04
    9.2499507591e-03    6.4077011719e+04
    9.2598246410e-03    6.4120433594e+04
    9.2698642984e-03    6.4165703125e+04
    9.2798052356e-03    6.4212207031e+04
    9.2898635194e-03    6.4259816406e+04
    9.2997774482e-03    6.4308113281e+04
    9.3097742647e-03    6.4359730469e+04
    9.3198399991e-03    6.4415261719e+04
    9.3299718574e-03    6.4472269531e+04
    9.3399137259e-03    6.4529167969e+04
    9.3499030918e-03    6.4586425781e+04
    9.3599371612e-03    6.4645558594e+04
    9.3697588891e-03    6.4704074219e+04
    9.3798683956e-03    6.4764089844e+04
    9.3897553161e-03    6.4822667969e+04
    9.3999290839e-03    6.4884339844e+04
    9.4098765403e-03    6.4948128906e+04
    9.4198454171e-03    6.5014457031e+04
    9.4298440963e-03    6.5083261719e+04
    9.4398632646e-03    6.5152781250e+04
    9.4499029219e-03    6.5223238281e+04
    9.4599658623e-03    6.5294113281e+04
    9.4697866589e-03    6.5362925781e+04
    9.4798849896e-03    6.5434082031e+04
    9.4897439703e-03    6.5503230469e+04
    9.4998721033e-03    6.5574992188e+04
    9.5097636804e-03    6.5646507812e+04
    9.5199272037e-03    6.5721953125e+04
    9.5298411325e-03    6.5798906250e+04
    9.5397755504e-03    6.5878304688e+04
    9.5499791205e-03    6.5962046875e+04
    9.5599386841e-03    6.6046367188e+04
    9.5699047670e-03    6.6131218750e+04
    9.5798904076e-03    6.6215671875e+04
    9.5898965374e-03    6.6299640625e+04
    9.5998914912e-03    6.6382023438e+04
    9.6099097282e-03    6.6463914062e+04
    9.6199456602e-03    6.6546554688e+04
    9.6299936995e-03    6.6629835938e+04
    9.6397828311e-03    6.6712429688e+04
    9.6498420462e-03    6.6799460938e+04
    9.6599385142e-03    6.6888335938e+04
    9.6697779372e-03    6.6976359375e+04
    9.6798678860e-03    6.7068593750e+04
    9.6899894997e-03    6.7162625000e+04
    9.6998671070e-03    6.7255359375e+04
    9.7097484395e-03    6.7349492188e+04
    9.7198914737e-03    6.7447843750e+04
    9.7297942266e-03    6.7545187500e+04
    9.7399912775e-03    6.7646718750e+04
    9.7499163821e-03    6.7746898438e+04
    9.7598340362e-03    6.7848101562e+04
    9.7697805613e-03    6.7950000000e+04
    9.7797485068e-03    6.8052359375e+04
    9.7899883986e-03    6.8157929688e+04
    9.7999591380e-03    6.8261093750e+04
    9.8099485040e-03    6.8364375000e+04
    9.8199546337e-03    6.8467960938e+04
    9.8299626261e-03    6.8571773438e+04
    9.8399762064e-03    6.8676765625e+04
    9.8497373983e-03    6.8780515625e+04
    9.8597807810e-03    6.8888375000e+04
    9.8698241636e-03    6.8997101562e+04
    9.8798740655e-03    6.9106742188e+04
    9.8899388686e-03    6.9217671875e+04
    9.8997438326e-03    6.9327015625e+04
    9.9098216742e-03    6.9440867188e+04
    9.9199032411e-03    6.9555796875e+04
    9.9299969152e-03    6.9671242188e+04
    9.9398288876e-03    6.9783945312e+04
    9.9499393255e-03    6.9900250000e+04
    9.9597806111e-03    7.0014179688e+04
    9.9699031562e-03    7.0132531250e+04
    9.9797584116e-03    7.0248968750e+04
    9.9898912013e-03    7.0369789062e+04
    9.9997576326e-03    7.0488351562e+04
    1.0009906255e-02    7.0611445312e+04
    1.0019785725e-02    7.0732421875e+04
    1.0029943660e-02    7.0857890625e+04
    1.0039833374e-02    7.0980882812e+04
    1.0049728677e-02    7.1104734375e+04
    1.0059900582e-02    7.1232687500e+04
    1.0069794953e-02    7.1357226562e+04
    1.0079965927e-02    7.1485390625e+04
    1.0089871474e-02    7.1610914062e+04
    1.0099784471e-02    7.1737578125e+04
    1.0109977797e-02    7.1869070312e+04
    1.0119900107e-02    7.1998343750e+04
    1.0129824281e-02    7.2128929688e+04
    1.0139749385e-02    7.2261031250e+04
    1.0149949230e-02    7.2398851562e+04
    1.0159873404e-02    7.2535156250e+04
    1.0169797577e-02    7.2673507812e+04
    1.0179996490e-02    7.2817289062e+04
    1.0189920664e-02    7.2958210938e+04
    1.0199844837e-02    7.3099968750e+04
    1.0209769942e-02    7.3242710938e+04
    1.0219971649e-02    7.3390617188e+04
    1.0229897685e-02    7.3535507812e+04
    1.0239824653e-02    7.3680937500e+04
    1.0249750689e-02    7.3826656250e+04
    1.0259954259e-02    7.3976812500e+04
    1.0269882157e-02    7.4123585938e+04
    1.0279811919e-02    7.4271281250e+04
    1.0289741680e-02    7.4420210938e+04
    1.0299948044e-02    7.4574773438e+04
    1.0309879668e-02    7.4726429688e+04
    1.0319811292e-02    7.4878734375e+04
    1.0329743847e-02    7.5031039062e+04
    1.0339953937e-02    7.5187617188e+04
    1.0349888355e-02    7.5341218750e+04
    1.0359822772e-02    7.5497085938e+04
    1.0369758122e-02    7.5654804688e+04
    1.0379969142e-02    7.5817570312e+04
    1.0389905423e-02    7.5975671875e+04
    1.0399840772e-02    7.6133398438e+04
    1.0409777053e-02    7.6291250000e+04
    1.0419989005e-02    7.6454523438e+04
    1.0429926217e-02    7.6615007812e+04
    1.0439864360e-02    7.6777242188e+04
    1.0449804366e-02    7.6941281250e+04
    1.0459749028e-02    7.7107343750e+04
    1.0469975881e-02    7.7280593750e+04
    1.0479928926e-02    7.7452234375e+04
    1.0489881039e-02    7.7627414062e+04
    1.0499832220e-02    7.7806468750e+04
    1.0509782471e-02    7.7989726562e+04
    1.0519731790e-02    7.8177687500e+04
    1.0529957712e-02    7.8376398438e+04
    1.0539907962e-02    7.8575820312e+04
    1.0549861938e-02    7.8781765625e+04
    1.0559815913e-02    7.8994242188e+04
    1.0569769889e-02    7.9212843750e+04
    1.0579723865e-02    7.9437328125e+04
    1.0589953512e-02    7.9674500000e+04
    1.0599908419e-02    7.9912140625e+04
    1.0609864257e-02    8.0156984375e+04
    1.0619820096e-02    8.0409375000e+04
    1.0629775003e-02    8.0669859375e+04
    1.0639729910e-02    8.0939117188e+04
    1.0649962351e-02    8.1225718750e+04
    1.0659918189e-02    8.1514437500e+04
    1.0669874027e-02    8.1812828125e+04
    1.0679830797e-02    8.2121210938e+04
    1.0689786635e-02    8.2440757812e+04
    1.0699742474e-02    8.2773351562e+04
    1.0709974915e-02    8.3130617188e+04
    1.0719931684e-02    8.3494335938e+04
    1.0729887523e-02    8.3874960938e+04
    1.0739844292e-02    8.4307031250e+04
    1.0749801993e-02    9.3024945312e+04
    1.0759758763e-02    1.0574171875e+05
    1.0769992135e-02    1.0590822656e+05
    1.0779948905e-02    1.0575772656e+05
    1.0789905675e-02    1.0551410156e+05
    1.0799863376e-02    1.0524453125e+05
    1.0809821077e-02    1.0497021875e+05
    1.0819778778e-02    1.0470372656e+05
    1.0829736479e-02    1.0445078125e+05
    1.0839969851e-02    1.0420341406e+05
    1.0849928483e-02    1.0397053125e+05
    1.0859886184e-02    1.0374391406e+05
    1.0869844817e-02    1.0352359375e+05
    1.0879802518e-02    1.0331012500e+05
    1.0889761150e-02    1.0310321875e+05
    1.0899995454e-02    1.0289717969e+05
    1.0909955017e-02    1.0270303906e+05
    1.0919913650e-02    1.0251481250e+05
    1.0929872282e-02    1.0233172656e+05
    1.0939830914e-02    1.0215391406e+05
    1.0949789546e-02    1.0198134375e+05
    1.0959749110e-02    1.0181383594e+05
    1.0969985276e-02    1.0164703125e+05
    1.0979944840e-02    1.0148985156e+05
    1.0989903472e-02    1.0133742969e+05
    1.0999863036e-02    1.0118943750e+05
    1.1009822600e-02    1.0104585156e+05
    1.1019783095e-02    1.0090650000e+05
    1.1029743589e-02    1.0077121094e+05
    1.1039980687e-02    1.0063646875e+05
    1.1049941182e-02    1.0050903906e+05
    1.1059901677e-02    1.0038549219e+05
    1.1069862172e-02    1.0026487500e+05
    1.1079823598e-02    1.0015003906e+05
    1.1089785025e-02    1.0003609375e+05
    1.1099745519e-02    9.9926429688e+04
    1.1109983549e-02    9.9818460938e+04
    1.1119944975e-02    9.9716023438e+04
    1.1129906401e-02    9.9616500000e+04
    1.1139868759e-02    9.9520093750e+04
    1.1149831116e-02    9.9426664062e+04
    1.1159793474e-02    9.9336195312e+04
    1.1169756763e-02    9.9248460938e+04
    1.1179996654e-02    9.9161437500e+04
    1.1189959943e-02    9.9079914062e+04
    1.1199923232e-02    9.9001335938e+04
    1.1209886521e-02    9.8925414062e+04
    1.1219849810e-02    9.8852031250e+04
    1.1229814030e-02    9.8781187500e+04
    1.1239777319e-02    9.8712664062e+04
    1.1249741539e-02    9.8646281250e+04
    1.1259983294e-02    9.8580664062e+04
    1.1269948445e-02    9.8519414062e+04
    1.1279913597e-02    9.8460820312e+04
    1.1289878748e-02    9.8405023438e+04
    1.1299843900e-02    9.8351539062e+04
    1.1309809983e-02    9.8299945312e+04
    1.1319775134e-02    9.8249898438e+04
    1.1329740286e-02    9.8201507812e+04
    1.1339982972e-02    9.8153812500e+04
    1.1349949986e-02    9.8110648438e+04
    1.1359916069e-02    9.8069242188e+04
    1.1369884014e-02    9.8032210938e+04
    1.1379851028e-02    9.7995851562e+04
    1.1389818974e-02    9.7960414062e+04
    1.1399786919e-02    9.7927164062e+04
    1.1409754865e-02    9.7895320312e+04
    1.1419722810e-02    9.7865531250e+04
    1.1429968290e-02    9.7837585938e+04
    1.1439937167e-02    9.7812804688e+04
    1.1449905112e-02    9.7789585938e+04
    1.1459873989e-02    9.7767695312e+04
    1.1469843797e-02    9.7747406250e+04
    1.1479813606e-02    9.7728726562e+04
    1.1489783414e-02    9.7712164062e+04
    1.1499753222e-02    9.7697554688e+04
    1.1509723961e-02    9.7684539062e+04
    1.1519971304e-02    9.7672757812e+04
    1.1529942043e-02    9.7663148438e+04
    1.1539912783e-02    9.7655289062e+04
    1.1549884453e-02    9.7649148438e+04
    1.1559856124e-02    9.7644679688e+04
    1.1569827795e-02    9.7641414062e+04
    1.1579799466e-02    9.7639523438e+04
    1.1589771137e-02    9.7639304688e+04
    1.1599743739e-02    9.7640617188e+04
    1.1609993875e-02    9.7643523438e+04
    1.1619966477e-02    9.7647789062e+04
    1.1629940011e-02    9.7653656250e+04
    1.1639913544e-02    9.7660843750e+04
    1.1649887078e-02    9.7669367188e+04
    1.1659860611e-02    9.7679132812e+04
    1.1669834144e-02    9.7690101562e+04
    1.1679808609e-02    9.7702250000e+04
    1.1689783074e-02    9.7716468750e+04
    1.1699757539e-02    9.7731726562e+04
    1.1709732935e-02    9.7748835938e+04
    1.1719984934e-02    9.7767500000e+04
    1.1729960330e-02    9.7785742188e+04
    1.1739935726e-02    9.7803898438e+04
    1.1749912053e-02    9.7822468750e+04
    1.1759887449e-02    9.7842445312e+04
    1.1769863777e-02    9.7864726562e+04
    1.1779841036e-02    9.7889617188e+04
    1.1789817363e-02    9.7916664062e+04
    1.1799793690e-02    9.7944914062e+04
    1.1809770949e-02    9.7973343750e+04
    1.1819748208e-02    9.8001148438e+04
    1.1829726398e-02    9.8028117188e+04
    1.1839981191e-02    9.8055375000e+04
    1.1849958450e-02    9.8082062500e+04
    1.1859936640e-02    9.8109351562e+04
    1.1869914830e-02    9.8137351562e+04
    1.1879893951e-02    9.8165976562e+04
    1.1889873073e-02    9.8195031250e+04
    1.1899852194e-02    9.8224382812e+04
    1.1909831315e-02    9.8253843750e+04
    1.1919810437e-02    9.8283132812e+04
    1.1929789558e-02    9.8312023438e+04
    1.1939769611e-02    9.8340476562e+04
    1.1949748732e-02    9.8368617188e+04
    1.1959729716e-02    9.8395812500e+04
    1.1969987303e-02    9.8423218750e+04
    1.1979968287e-02    9.8448726562e+04
    1.1989949271e-02    9.8473531250e+04
    1.1999929324e-02    9.8497125000e+04
    1.2009910308e-02    9.8520085938e+04
    1.2019891292e-02    9.8541867188e+04
    1.2029874139e-02    9.8562523438e+04
    1.2039856054e-02    9.8582101562e+04
    1.2049838901e-02    9.8600750000e+04
    1.2059821747e-02    9.8618875000e+04
    1.2069803663e-02    9.8636976562e+04
    1.2079785578e-02    9.8655210938e+04
    1.2089768425e-02    9.8673664062e+04
    1.2099751271e-02    9.8692250000e+04
    1.2109735049e-02    9.8710585938e+04
    1.2119996361e-02    9.8728242188e+04
    1.2129981071e-02    9.8742335938e+04
    1.2139964849e-02    9.8751164062e+04
    1.2149949558e-02    9.8752960938e+04
    1.2159934267e-02    9.8747789062e+04
    1.2169918977e-02    9.8737242188e+04
    1.2179902755e-02    9.8725437500e+04
    1.2189887464e-02    9.8717101562e+04
    1.2199872173e-02    9.8713617188e+04
    1.2209856883e-02    9.8713835938e+04
    1.2219841592e-02    9.8715273438e+04
    1.2229828164e-02    9.8715601562e+04
    1.2239813805e-02    9.8713835938e+04
    1.2249800377e-02    9.8710195312e+04
    1.2259786017e-02    9.8705898438e+04
    1.2269772589e-02    9.8702000000e+04
    1.2279759161e-02    9.8697625000e+04
    1.2289744802e-02    9.8691820312e+04
    1.2299731374e-02    9.8684367188e+04
    1.2309995480e-02    9.8675851562e+04
    1.2319982052e-02    9.8667632812e+04
    1.2329969555e-02    9.8659312500e+04
    1.2339957058e-02    9.8651101562e+04
    1.2349944562e-02    9.8642054688e+04
    1.2359932065e-02    9.8632039062e+04
    1.2369919568e-02    9.8621320312e+04
    1.2379907072e-02    9.8610054688e+04
    1.2389895506e-02    9.8598398438e+04
    1.2399883941e-02    9.8586343750e+04
    1.2409872375e-02    9.8573695312e+04
    1.2419860810e-02    9.8560273438e+04
    1.2429849245e-02    9.8546164062e+04
    1.2439837679e-02    9.8531718750e+04
    1.2449826114e-02    9.8517320312e+04
    1.2459815480e-02    9.8503031250e+04
    1.2469804846e-02    9.8488375000e+04
    1.2479794212e-02    9.8472632812e+04
    1.2489782646e-02    9.8455398438e+04
    1.2499772012e-02    9.8436976562e+04
    1.2509761378e-02    9.8418148438e+04
    1.2519751675e-02    9.8399398438e+04
    1.2529741041e-02    9.8380687500e+04
    1.2539730407e-02    9.8361718750e+04
    1.2549997307e-02    9.8341875000e+04
    1.2559987605e-02    9.8322414062e+04
    1.2569977902e-02    9.8302820312e+04
    1.2579967268e-02    9.8282757812e+04
    1.2589957565e-02    9.8261820312e+04
    1.2599947862e-02    9.8239968750e+04
    1.2609938160e-02    9.8217187500e+04
    1.2619928457e-02    9.8193242188e+04
    1.2629918754e-02    9.8169039062e+04
    1.2639909051e-02    9.8143585938e+04
    1.2649899349e-02    9.8117976562e+04
    1.2659890577e-02    9.8091562500e+04
    1.2669880874e-02    9.8064695312e+04
    1.2679871172e-02    9.8038257812e+04
    1.2689862400e-02    9.8010476562e+04
    1.2699852698e-02    9.7982679688e+04
    1.2709843926e-02    9.7954570312e+04
    1.2719834223e-02    9.7925273438e+04
    1.2729825452e-02    9.7895945312e+04
    1.2739815749e-02    9.7866851562e+04
    1.2749806978e-02    9.7837023438e+04
    1.2759797275e-02    9.7806117188e+04
    1.2769788504e-02    9.7774656250e+04
    1.2779778801e-02    9.7742867188e+04
    1.2789770029e-02    9.7710562500e+04
    1.2799760327e-02    9.7677593750e+04
    1.2809751555e-02    9.7643976562e+04
    1.2819742784e-02    9.7609773438e+04
    1.2829733081e-02    9.7574960938e+04
    1.2839724310e-02    9.7539351562e+04
    1.2849992141e-02    9.7501664062e+04
    1.2859983370e-02    9.7464054688e+04
    1.2869973667e-02    9.7425914062e+04
    1.2879964896e-02    9.7387539062e+04
    1.2889955193e-02    9.7348726562e+04
    1.2899946421e-02    9.7309351562e+04
    1.2909936719e-02    9.7269664062e+04
    1.2919927947e-02    9.7229648438e+04
    1.2929918244e-02    9.7188773438e+04
    1.2939908542e-02    9.7147023438e+04
    1.2949899770e-02    9.7104281250e+04
    1.2959890068e-02    9.7061164062e+04
    1.2969881296e-02    9.7016882812e+04
    1.2979871593e-02    9.6972289062e+04
    1.2989861891e-02    9.6926570312e+04
    1.2999852188e-02    9.6880656250e+04
    1.3009843417e-02    9.6833304688e+04
    1.3019833714e-02    9.6785898438e+04
    1.3029824011e-02    9.6737164062e+04
    1.3039814308e-02    9.6687648438e+04
    1.3049804606e-02    9.6637812500e+04
    1.3059795834e-02    9.6586710938e+04
    1.3069786131e-02    9.6535757812e+04
    1.3079776429e-02    9.6484414062e+04
    1.3089766726e-02    9.6432617188e+04
    1.3099757023e-02    9.6380507812e+04
    1.3109747320e-02    9.6328531250e+04
    1.3119737618e-02    9.6275875000e+04
    1.3129727915e-02    9.6223093750e+04
    1.3139994815e-02    9.6168210938e+04
    1.3149985112e-02    9.6114539062e+04
    1.3159975410e-02    9.6059914062e+04
    1.3169965707e-02    9.6005210938e+04
    1.3179956004e-02    9.5950250000e+04
    1.3189946301e-02    9.5895664062e+04
    1.3199936599e-02    9.5840960938e+04
    1.3209926896e-02    9.5785273438e+04
    1.3219918124e-02    9.5728695312e+04
    1.3229908422e-02    9.5670093750e+04
    1.3239899650e-02    9.5610773438e+04
    1.3249891810e-02    9.5549132812e+04
    1.3259883039e-02    9.5485929688e+04
    1.3269875199e-02    9.5419320312e+04
    1.3279867359e-02    9.5341742188e+04
    1.3289860450e-02    9.5229445312e+04
    1.3299854472e-02    9.5015687500e+04
    1.3309847564e-02    9.4621820312e+04
    1.3319841586e-02    9.4033062500e+04
    1.3329836540e-02    9.3309773438e+04
    1.3339831494e-02    9.2525656250e+04
    1.3349826448e-02    9.1725351562e+04
    1.3359821402e-02    9.0934585938e+04
    1.3369818218e-02    9.0176460938e+04
    1.3379815035e-02    8.9486656250e+04
    1.3389811851e-02    8.8952382812e+04
    1.3399809599e-02    8.8801343750e+04
    1.3409808278e-02    8.9005617188e+04
    1.3419806957e-02    8.9154187500e+04
    1.3429805636e-02    8.9163273438e+04
    1.3439804316e-02    8.9161648438e+04
    1.3449804857e-02    8.9190648438e+04
    1.3459805399e-02    8.9207414062e+04
    1.3469806872e-02    8.9224312500e+04
    1.3479808345e-02    8.9243585938e+04
    1.3489811681e-02    8.9263343750e+04
    1.3499815948e-02    8.9284437500e+04
    1.3509819284e-02    8.9306710938e+04
    1.3519823551e-02    8.9330187500e+04
    1.3529828750e-02    8.9354570312e+04
    1.3539833948e-02    8.9379710938e+04
    1.3549839146e-02    8.9405726562e+04
    1.3559843414e-02    8.9432726562e+04
    1.3569851406e-02    8.9460789062e+04
    1.3579861261e-02    8.9489898438e+04
    1.3589870185e-02    8.9519835938e+04
    1.3599879108e-02    8.9550179688e+04
    1.3609889895e-02    8.9580679688e+04
    1.3619902544e-02    8.9611414062e+04
    1.3629915193e-02    8.9642648438e+04
    1.3639928773e-02    8.9674625000e+04
    1.3649944216e-02    8.9707406250e+04
    1.3659961522e-02    8.9740617188e+04
    1.3669976965e-02    8.9773601562e+04
    1.3679994270e-02    8.9805960938e+04
    1.3689736836e-02    8.9837007812e+04
    1.3699757867e-02    8.9869054688e+04
    1.3709778897e-02    8.9901593750e+04
    1.3719798997e-02    8.9934562500e+04
    1.3729820959e-02    8.9967523438e+04
    1.3739847578e-02    9.0000023438e+04
    1.3749874197e-02    9.0031781250e+04
    1.3759900816e-02    9.0062773438e+04
    1.3769927435e-02    9.0093039062e+04
    1.3779957779e-02    9.0122695312e+04
    1.3789990917e-02    9.0151882812e+04
    1.3799747452e-02    9.0179960938e+04
    1.3809785247e-02    9.0208554688e+04
    1.3819822110e-02    9.0236835938e+04
    1.3829859905e-02    9.0264750000e+04
    1.3839900494e-02    9.0292226562e+04
    1.3849945739e-02    9.0319023438e+04
    1.3859992847e-02    9.0344710938e+04
    1.3869760558e-02    9.0368367188e+04
    1.3879803941e-02    9.0391460938e+04
    1.3889849186e-02    9.0413742188e+04
    1.3899901882e-02    9.0435648438e+04
    1.3909959234e-02    9.0457226562e+04
    1.3919735327e-02    9.0477726562e+04
    1.3929790817e-02    9.0498093750e+04
    1.3939849101e-02    9.0517539062e+04
    1.3949910179e-02    9.0535882812e+04
    1.3959975913e-02    9.0552976562e+04
    1.3969765976e-02    9.0568460938e+04
    1.3979832642e-02    9.0583476562e+04
    1.3989901170e-02    9.0597960938e+04
    1.3999974355e-02    9.0612039062e+04
    1.4009770006e-02    9.0625101562e+04
    1.4019851573e-02    9.0637492188e+04
    1.4029933140e-02    9.0648562500e+04
    1.4039730653e-02    9.0658164062e+04
    1.4049811289e-02    9.0667226562e+04
    1.4059900306e-02    9.0675726562e+04
    1.4069993980e-02    9.0683625000e+04
    1.4079806395e-02    9.0690523438e+04
    1.4089900069e-02    9.0696632812e+04
    1.4099990018e-02    9.0701757812e+04
    1.4109804295e-02    9.0705914062e+04
    1.4119908214e-02    9.0709398438e+04
    1.4129735529e-02    9.0711937500e+04
    1.4139843173e-02    9.0713625000e+04
    1.4149951749e-02    9.0714437500e+04
    1.4159779064e-02    9.0714593750e+04
    1.4169888571e-02    9.0714164062e+04
    1.4179724269e-02    9.0713007812e+04
    1.4189844020e-02    9.0710835938e+04
    1.4199962839e-02    9.0707695312e+04
    1.4209804125e-02    9.0703875000e+04
    1.4219931327e-02    9.0699210938e+04
    1.4229780994e-02    9.0693914062e+04
    1.4239914715e-02    9.0687804688e+04
    1.4249768108e-02    9.0681273438e+04
    1.4259899966e-02    9.0673960938e+04
    1.4269757085e-02    9.0666195312e+04
    1.4279902913e-02    9.0657429688e+04
    1.4289766550e-02    9.0648125000e+04
    1.4299915172e-02    9.0637757812e+04
    1.4309780672e-02    9.0626976562e+04
    1.4319922775e-02    9.0615320312e+04
    1.4329787344e-02    9.0603468750e+04
    1.4339944348e-02    9.0590773438e+04
    1.4349824749e-02    9.0577914062e+04
    1.4359988272e-02    9.0564148438e+04
    1.4369869605e-02    9.0550148438e+04
    1.4379748143e-02    9.0535460938e+04
    1.4389912598e-02    9.0519500000e+04
    1.4399806038e-02    9.0503210938e+04
    1.4409982599e-02    9.0485851562e+04
    1.4419876970e-02    9.0468726562e+04
    1.4429775998e-02    9.0451476562e+04
    1.4439959079e-02    9.0433554688e+04
    1.4449857175e-02    9.0415906250e+04
    1.4459761791e-02    9.0397960938e+04
    1.4469953254e-02    9.0379148438e+04
    1.4479863457e-02    9.0360414062e+04
    1.4489777386e-02    9.0341257812e+04
    1.4499979094e-02    9.0321117188e+04
    1.4509898610e-02    9.0301210938e+04
    1.4519817196e-02    9.0281039062e+04
    1.4529736713e-02    9.0260726562e+04
    1.4539938420e-02    9.0239757812e+04
    1.4549864456e-02    9.0219289062e+04
    1.4559798874e-02    9.0198789062e+04
    1.4569736086e-02    9.0178242188e+04
    1.4579957351e-02    9.0157054688e+04
    1.4589895494e-02    9.0136429688e+04
    1.4599829912e-02    9.0115820312e+04
    1.4609762467e-02    9.0095257812e+04
    1.4619987458e-02    9.0074164062e+04
    1.4629936777e-02    9.0053742188e+04
    1.4639889821e-02    9.0033343750e+04
    1.4649846591e-02    9.0012882812e+04
    1.4659799635e-02    8.9992289062e+04
    1.4669755474e-02    8.9971468750e+04
    1.4679715037e-02    8.9950351562e+04
    1.4689962380e-02    8.9928335938e+04
    1.4699923806e-02    8.9906835938e+04
    1.4709892683e-02    8.9885476562e+04
    1.4719866216e-02    8.9864531250e+04
    1.4729836956e-02    8.9844226562e+04
    1.4739812352e-02    8.9824835938e+04
    1.4749793336e-02    8.9806539062e+04
    1.4759777114e-02    8.9789312500e+04
    1.4769762754e-02    8.9772757812e+04
    1.4779753983e-02    8.9756250000e+04
    1.4789749868e-02    8.9739210938e+04
    1.4799744822e-02    8.9721250000e+04
    1.4809739776e-02    8.9702429688e+04
    1.4819735661e-02    8.9683070312e+04
    1.4829738066e-02    8.9663554688e+04
    1.4839748852e-02    8.9644070312e+04
    1.4849762432e-02    8.9624687500e+04
    1.4859776013e-02    8.9605367188e+04
    1.4869790524e-02    8.9586070312e+04
    1.4879805036e-02    8.9566742188e+04
    1.4889815822e-02    8.9547398438e+04
    1.4899830334e-02    8.9527976562e+04
    1.4909852296e-02    8.9508500000e+04
    1.4919879846e-02    8.9488906250e+04
    1.4929911122e-02    8.9469148438e+04
    1.4939943328e-02    8.9449187500e+04
    1.4949975535e-02    8.9429148438e+04
    1.4959717169e-02    8.9409726562e+04
    1.4969749376e-02    8.9389757812e+04
    1.4979783446e-02    8.9369742188e+04
    1.4989819378e-02    8.9349617188e+04
    1.4999861829e-02    8.9329335938e+04
    1.5009905212e-02    8.9308898438e+04
    1.5019949526e-02    8.9288406250e+04
    1.5029995702e-02    8.9267914062e+04
    1.5039751306e-02    8.9247960938e+04
    1.5049785376e-02    8.9227304688e+04
    1.5059813857e-02    8.9206554688e+04
    1.5069836751e-02    8.9185835938e+04
    1.5079852194e-02    8.9165226562e+04
    1.5089862049e-02    8.9144687500e+04
    1.5099866316e-02    8.9124101562e+04
    1.5109864995e-02    8.9103398438e+04
    1.5119872987e-02    8.9082500000e+04
    1.5129745938e-02    8.9061710938e+04
    1.5139804222e-02    8.9040304688e+04
    1.5149742365e-02    8.9018906250e+04
    1.5159850940e-02    8.8996976562e+04
    1.5169813298e-02    8.8975367188e+04
    1.5179933049e-02    8.8953570312e+04
    1.5189890750e-02    8.8932335938e+04
    1.5199994668e-02    8.8910914062e+04
    1.5209913254e-02    8.8889976562e+04
    1.5219965950e-02    8.8868773438e+04
    1.5229816549e-02    8.8847945312e+04
    1.5239800327e-02    8.8826773438e+04
    1.5249904245e-02    8.8805289062e+04
    1.5259774402e-02    8.8784273438e+04
    1.5269765630e-02    8.8762914062e+04
    1.5279862098e-02    8.8741320312e+04
    1.5289691277e-02    8.8720281250e+04
    1.5299987048e-02    8.8698210938e+04
    1.5309996903e-02    8.8676648438e+04
    1.5319685452e-02    8.8655656250e+04
    1.5329845250e-02    8.8633398438e+04
    1.5339951031e-02    8.8611125000e+04
    1.5349774621e-02    8.8589437500e+04
    1.5359866433e-02    8.8567117188e+04
    1.5369984321e-02    8.8544757812e+04
    1.5379856341e-02    8.8523039062e+04
    1.5389752574e-02    8.8501382812e+04
    1.5399938449e-02    8.8479210938e+04
    1.5409852378e-02    8.8457718750e+04
    1.5419772826e-02    8.8436351562e+04
    1.5429973602e-02    8.8414601562e+04
    1.5439902432e-02    8.8393656250e+04
    1.5449835919e-02    8.8372875000e+04
    1.5459772199e-02    8.8352148438e+04
    1.5469987877e-02    8.8330742188e+04
    1.5479930677e-02    8.8309820312e+04
    1.5489875339e-02    8.8288835938e+04
    1.5499820933e-02    8.8267851562e+04
    1.5509769320e-02    8.8246882812e+04
    1.5519993380e-02    8.8225414062e+04
    1.5529942699e-02    8.8204789062e+04
    1.5539892018e-02    8.8184585938e+04
    1.5549841337e-02    8.8164773438e+04
    1.5559790656e-02    8.8145281250e+04
    1.5569739044e-02    8.8126117188e+04
    1.5579964966e-02    8.8106773438e+04
    1.5589913353e-02    8.8088273438e+04
    1.5599862672e-02    8.8070085938e+04
    1.5609811060e-02    8.8052226562e+04
    1.5619759448e-02    8.8034718750e+04
    1.5629984438e-02    8.8017031250e+04
    1.5639932826e-02    8.8000164062e+04
    1.5649879351e-02    8.7983867188e+04
    1.5659827739e-02    8.7968335938e+04
    1.5669774264e-02    8.7953468750e+04
    1.5679998323e-02    8.7938789062e+04
    1.5689944848e-02    8.7925125000e+04
    1.5699893236e-02    8.7912023438e+04
    1.5709839761e-02    8.7899414062e+04
    1.5719786286e-02    8.7887335938e+04
    1.5729730949e-02    8.7875820312e+04
    1.5739953145e-02    8.7864601562e+04
    1.5749899670e-02    8.7854320312e+04
    1.5759844333e-02    8.7844835938e+04
    1.5769788995e-02    8.7836132812e+04
    1.5779733658e-02    8.7828273438e+04
    1.5789955854e-02    8.7820976562e+04
    1.5799900517e-02    8.7814539062e+04
    1.5809843317e-02    8.7808695312e+04
    1.5819787979e-02    8.7803304688e+04
    1.5829730779e-02    8.7798406250e+04
    1.5839949250e-02    8.7793867188e+04
    1.5849893913e-02    8.7790039062e+04
    1.5859834850e-02    8.7786929688e+04
    1.5869777650e-02    8.7784695312e+04
    1.5879996121e-02    8.7783437500e+04
    1.5889937058e-02    8.7783281250e+04
    1.5899879858e-02    8.7784054688e+04
    1.5909820795e-02    8.7785585938e+04
    1.5919761732e-02    8.7787679688e+04
    1.5929978341e-02    8.7790320312e+04
    1.5939919278e-02    8.7793343750e+04
    1.5949858353e-02    8.7796789062e+04
    1.5959799290e-02    8.7800687500e+04
    1.5969738364e-02    8.7805039062e+04
    1.5979953110e-02    8.7810023438e+04
    1.5989892185e-02    8.7815414062e+04
    1.5999831259e-02    8.7821476562e+04
    1.6009770334e-02    8.7828242188e+04
    1.6019983217e-02    8.7836023438e+04
    1.6029922292e-02    8.7844492188e+04
    1.6039859504e-02    8.7853835938e+04
    1.6049796715e-02    8.7863914062e+04
    1.6059733927e-02    8.7874648438e+04
    1.6069946811e-02    8.7886335938e+04
    1.6079884022e-02    8.7898460938e+04
    1.6089819372e-02    8.7911343750e+04
    1.6099756584e-02    8.7924960938e+04
    1.6109969467e-02    8.7939539062e+04
    1.6119906679e-02    8.7954226562e+04
    1.6129843891e-02    8.7969414062e+04
    1.6139782965e-02    8.7985164062e+04
    1.6149997711e-02    8.8001914062e+04
    1.6159938648e-02    8.8018664062e+04
    1.6169879586e-02    8.8035835938e+04
    1.6179824248e-02    8.8053460938e+04
    1.6189774498e-02    8.8071648438e+04
    1.6199726611e-02    8.8090492188e+04
    1.6209959984e-02    8.8110507812e+04
    1.6219917685e-02    8.8130539062e+04
    1.6229879111e-02    8.8151085938e+04
    1.6239844263e-02    8.8172132812e+04
    1.6249822453e-02    8.8193726562e+04
    1.6259809956e-02    8.8215945312e+04
    1.6269803047e-02    8.8238789062e+04
    1.6279798001e-02    8.8262257812e+04
    1.6289792955e-02    8.8286210938e+04
    1.6299793497e-02    8.8310539062e+04
    1.6309801489e-02    8.8335273438e+04
    1.6319818795e-02    8.8360468750e+04
    1.6329845414e-02    8.8386210938e+04
    1.6339875758e-02    8.8412585938e+04
    1.6349907964e-02    8.8439601562e+04
    1.6359943897e-02    8.8467226562e+04
    1.6369985417e-02    8.8495320312e+04
    1.6379753128e-02    8.8522960938e+04
    1.6389805824e-02    8.8551648438e+04
    1.6399860382e-02    8.8580656250e+04
    1.6409918666e-02    8.8610039062e+04
    1.6419980675e-02    8.8639773438e+04
    1.6429765150e-02    8.8669000000e+04
    1.6439830884e-02    8.8699476562e+04
    1.6449896619e-02    8.8730539062e+04
    1.6459962353e-02    8.8762320312e+04
    1.6469748691e-02    8.8793867188e+04
    1.6479816288e-02    8.8826914062e+04
    1.6489882022e-02    8.8860531250e+04
    1.6499947757e-02    8.8894648438e+04
    1.6509735957e-02    8.8928242188e+04
    1.6519805416e-02    8.8963164062e+04
    1.6529876739e-02    8.8998445312e+04
    1.6539948061e-02    8.9034085938e+04
    1.6549739987e-02    8.9069093750e+04
    1.6559815034e-02    8.9105398438e+04
    1.6569890082e-02    8.9141906250e+04
    1.6579965129e-02    8.9178554688e+04
    1.6589764506e-02    8.9214281250e+04
    1.6599843279e-02    8.9251148438e+04
    1.6609923914e-02    8.9288148438e+04
    1.6619725153e-02    8.9324273438e+04
    1.6629807651e-02    8.9361476562e+04
    1.6639892012e-02    8.9398632812e+04
    1.6649978235e-02    8.9435601562e+04
    1.6659785062e-02    8.9471304688e+04
    1.6669875011e-02    8.9507773438e+04
    1.6679964960e-02    8.9543976562e+04
    1.6689775512e-02    8.9578843750e+04
    1.6699867323e-02    8.9614210938e+04
    1.6709960997e-02    8.9648929688e+04
    1.6719775274e-02    8.9681976562e+04
    1.6729870811e-02    8.9715187500e+04
    1.6739966348e-02    8.9747585938e+04
    1.6749784350e-02    8.9778289062e+04
    1.6759881750e-02    8.9809070312e+04
    1.6769981012e-02    8.9838960938e+04
    1.6779800877e-02    8.9867132812e+04
    1.6789902002e-02    8.9895156250e+04
    1.6799723729e-02    8.9921531250e+04
    1.6809824854e-02    8.9947976562e+04
    1.6819927841e-02    8.9974156250e+04
    1.6829749569e-02    9.0000007812e+04
    1.6839854419e-02    9.0028000000e+04
    1.6849957407e-02    9.0058781250e+04
    1.6859780997e-02    9.0092968750e+04
    1.6869885847e-02    9.0134179688e+04
    1.6879990697e-02    9.0183085938e+04
    1.6889816150e-02    9.0239304688e+04
    1.6899922863e-02    9.0307218750e+04
    1.6909748316e-02    9.0384132812e+04
    1.6919853166e-02    9.0475429688e+04
    1.6929959878e-02    9.0580023438e+04
    1.6939785331e-02    9.0695312500e+04
    1.6949893907e-02    9.0829007812e+04
    1.6959719360e-02    9.0975148438e+04
    1.6969826072e-02    9.1144195312e+04
    1.6979934648e-02    9.1335257812e+04
    1.6989761963e-02    9.1546335938e+04
    1.6999868676e-02    9.1797187500e+04
    1.7009977251e-02    9.2117226562e+04
    1.7019804567e-02    9.2852960938e+04
    1.7029911280e-02    9.5922039062e+04
    1.7039738595e-02    9.7817398438e+04
    1.7049847171e-02    9.7538968750e+04
    1.7059955746e-02    9.7590835938e+04
    1.7069783062e-02    9.7618742188e+04
    1.7079891637e-02    9.7596382812e+04
    1.7089720815e-02    9.7590718750e+04
    1.7099829391e-02    9.7587226562e+04
    1.7109939829e-02    9.7577312500e+04
    1.7119767144e-02    9.7563156250e+04
    1.7129877582e-02    9.7550062500e+04
    1.7139988020e-02    9.7538960938e+04
    1.7149817199e-02    9.7528164062e+04
    1.7159925774e-02    9.7513914062e+04
    1.7169754952e-02    9.7497406250e+04
    1.7179865390e-02    9.7480054688e+04
    1.7189975828e-02    9.7463117188e+04
    1.7199806869e-02    9.7447335938e+04
    1.7209917307e-02    9.7431382812e+04
    1.7219748348e-02    9.7415960938e+04
    1.7229858786e-02    9.7399382812e+04
    1.7239971086e-02    9.7382476562e+04
    1.7249802127e-02    9.7366000000e+04
    1.7259914428e-02    9.7348960938e+04
    1.7269745469e-02    9.7332445312e+04
    1.7279857770e-02    9.7315570312e+04
    1.7289970070e-02    9.7298851562e+04
    1.7299802974e-02    9.7282789062e+04
    1.7309915274e-02    9.7266656250e+04
    1.7319748178e-02    9.7251320312e+04
    1.7329862341e-02    9.7236070312e+04
    1.7339978367e-02    9.7221273438e+04
    1.7349811271e-02    9.7207273438e+04
    1.7359927297e-02    9.7193101562e+04
    1.7369762063e-02    9.7179875000e+04
    1.7379876226e-02    9.7166523438e+04
    1.7389994115e-02    9.7153820312e+04
    1.7399828881e-02    9.7142085938e+04
    1.7409946769e-02    9.7130523438e+04
    1.7419781536e-02    9.7119875000e+04
    1.7429899424e-02    9.7109476562e+04
    1.7439737916e-02    9.7099960938e+04
    1.7449855804e-02    9.7090726562e+04
    1.7459975556e-02    9.7082023438e+04
    1.7469814047e-02    9.7074062500e+04
    1.7479933798e-02    9.7066468750e+04
    1.7489774153e-02    9.7059773438e+04
    1.7499895766e-02    9.7053617188e+04
    1.7509736121e-02    9.7048281250e+04
    1.7519857734e-02    9.7043414062e+04
    1.7529981211e-02    9.7039164062e+04
    1.7539823428e-02    9.7035679688e+04
    1.7549946904e-02    9.7032789062e+04
    1.7559789121e-02    9.7030679688e+04
    1.7569914460e-02    9.7029210938e+04
    1.7579758540e-02    9.7028445312e+04
    1.7589885741e-02    9.7028351562e+04
    1.7599729821e-02    9.7028960938e+04
    1.7609857023e-02    9.7030226562e+04
    1.7619984224e-02    9.7032210938e+04
    1.7629832029e-02    9.7034773438e+04
    1.7639961094e-02    9.7038289062e+04
    1.7649808899e-02    9.7042367188e+04
    1.7659939826e-02    9.7047367188e+04
    1.7669787630e-02    9.7052820312e+04
    1.7679920420e-02    9.7059039062e+04
    1.7689770088e-02    9.7065687500e+04
    1.7699902877e-02    9.7073179688e+04
    1.7709754407e-02    9.7081132812e+04
    1.7719887197e-02    9.7090039062e+04
    1.7729740590e-02    9.7099531250e+04
    1.7739875242e-02    9.7110187500e+04
    1.7749728635e-02    9.7121492188e+04
    1.7759865150e-02    9.7134070312e+04
    1.7769720405e-02    9.7147101562e+04
    1.7779858783e-02    9.7161164062e+04
    1.7789997160e-02    9.7175773438e+04
    1.7799854279e-02    9.7190437500e+04
    1.7809992656e-02    9.7206031250e+04
    1.7819851637e-02    9.7221781250e+04
    1.7829991877e-02    9.7238679688e+04
    1.7839850858e-02    9.7255812500e+04
    1.7849992961e-02    9.7274187500e+04
    1.7859853804e-02    9.7292804688e+04
    1.7869997770e-02    9.7312710938e+04
    1.7879860476e-02    9.7332757812e+04
    1.7889723182e-02    9.7353414062e+04
    1.7899867147e-02    9.7375226562e+04
    1.7909731716e-02    9.7396968750e+04
    1.7919877544e-02    9.7419851562e+04
    1.7929743975e-02    9.7442632812e+04
    1.7939891666e-02    9.7466601562e+04
    1.7949758098e-02    9.7490445312e+04
    1.7959907651e-02    9.7515468750e+04
    1.7969775945e-02    9.7540148438e+04
    1.7979927361e-02    9.7565773438e+04
    1.7989795655e-02    9.7590914062e+04
    1.7999947071e-02    9.7617148438e+04
    1.8009819090e-02    9.7643101562e+04
    1.8019972369e-02    9.7670414062e+04
    1.8029844388e-02    9.7697625000e+04
    1.8039999530e-02    9.7726257812e+04
    1.8049873412e-02    9.7754710938e+04
    1.8059747294e-02    9.7783742188e+04
    1.8069904298e-02    9.7814132812e+04
    1.8079778180e-02    9.7843914062e+04
    1.8089937046e-02    9.7874460938e+04
    1.8099812791e-02    9.7903648438e+04
    1.8109973520e-02    9.7932867188e+04
    1.8119851127e-02    9.7960351562e+04
    1.8129728734e-02    9.7987148438e+04
    1.8139891326e-02    9.8014351562e+04
    1.8149770796e-02    9.8040867188e+04
    1.8159933388e-02    9.8068468750e+04
    1.8169814721e-02    9.8095718750e+04
    1.8179979175e-02    9.8124039062e+04
    1.8189862370e-02    9.8151664062e+04
    1.8199745566e-02    9.8179226562e+04
    1.8209911883e-02    9.8207445312e+04
    1.8219796941e-02    9.8234679688e+04
    1.8229965121e-02    9.8262492188e+04
    1.8239850178e-02    9.8289273438e+04
    1.8249737099e-02    9.8315710938e+04
    1.8259907141e-02    9.8342570312e+04
    1.8269795924e-02    9.8368375000e+04
    1.8279965967e-02    9.8394632812e+04
    1.8289856613e-02    9.8419843750e+04
    1.8299745396e-02    9.8444656250e+04
    1.8309919164e-02    9.8469687500e+04
    1.8319811672e-02    9.8493601562e+04
    1.8329985440e-02    9.8517851562e+04
    1.8339877948e-02    9.8541132812e+04
    1.8349772319e-02    9.8564023438e+04
    1.8359947950e-02    9.8587039062e+04
    1.8369844183e-02    9.8608851562e+04
    1.8379738554e-02    9.8630148438e+04
    1.8389917910e-02    9.8651625000e+04
    1.8399814144e-02    9.8672132812e+04
    1.8409995362e-02    9.8692851562e+04
    1.8419893458e-02    9.8712601562e+04
    1.8429791555e-02    9.8731945312e+04
    1.8439972773e-02    9.8751476562e+04
    1.8449874595e-02    9.8770156250e+04
    1.8459774554e-02    9.8788460938e+04
    1.8469959497e-02    9.8806835938e+04
    1.8479861319e-02    9.8824218750e+04
    1.8489763141e-02    9.8841164062e+04
    1.8499949947e-02    9.8858273438e+04
    1.8509853631e-02    9.8874617188e+04
    1.8519757316e-02    9.8890687500e+04
    1.8529945984e-02    9.8906937500e+04
    1.8539851531e-02    9.8922468750e+04
    1.8549758941e-02    9.8937773438e+04
    1.8559949473e-02    9.8953312500e+04
    1.8569856882e-02    9.8968179688e+04
    1.8579764292e-02    9.8982773438e+04
    1.8589956686e-02    9.8997523438e+04
    1.8599865958e-02    9.9011648438e+04
    1.8609777093e-02    9.9025585938e+04
    1.8619971350e-02    9.9039664062e+04
    1.8629882485e-02    9.9053070312e+04
    1.8639793620e-02    9.9066164062e+04
    1.8649989739e-02    9.9079406250e+04
    1.8659902737e-02    9.9092070312e+04
    1.8669817597e-02    9.9104523438e+04
    1.8679730594e-02    9.9116710938e+04
    1.8689930439e-02    9.9128960938e+04
    1.8699845299e-02    9.9140710938e+04
    1.8709762022e-02    9.9152335938e+04
    1.8719961867e-02    9.9164195312e+04
    1.8729878590e-02    9.9175585938e+04
    1.8739797175e-02    9.9186773438e+04
    1.8749998882e-02    9.9198117188e+04
    1.8759917468e-02    9.9209000000e+04
    1.8769836053e-02    9.9219726562e+04
    1.8779756501e-02    9.9230226562e+04
    1.8789960071e-02    9.9240789062e+04
    1.8799882382e-02    9.9250812500e+04
    1.8809804693e-02    9.9260656250e+04
    1.8819727004e-02    9.9270367188e+04
    1.8829932436e-02    9.9280210938e+04
    1.8839854747e-02    9.9289601562e+04
    1.8849778920e-02    9.9298851562e+04
    1.8859988078e-02    9.9308242188e+04
    1.8869912252e-02    9.9317210938e+04
    1.8879838288e-02    9.9325960938e+04
    1.8889764324e-02    9.9334507812e+04
    1.8899973482e-02    9.9343101562e+04
    1.8909899518e-02    9.9351320312e+04
    1.8919827417e-02    9.9359414062e+04
    1.8929755315e-02    9.9367375000e+04
    1.8939968199e-02    9.9375414062e+04
    1.8949896097e-02    9.9383117188e+04
    1.8959825858e-02    9.9390679688e+04
    1.8969755620e-02    9.9398101562e+04
    1.8979968503e-02    9.9405593750e+04
    1.8989900127e-02    9.9412710938e+04
    1.8999831751e-02    9.9419617188e+04
    1.9009763375e-02    9.9426335938e+04
    1.9019978121e-02    9.9433023438e+04
    1.9029911608e-02    9.9439343750e+04
    1.9039843231e-02    9.9445492188e+04
    1.9049776718e-02    9.9451468750e+04
    1.9059995189e-02    9.9457414062e+04
    1.9069928676e-02    9.9462992188e+04
    1.9079864025e-02    9.9468367188e+04
    1.9089797512e-02    9.9473539062e+04
    1.9099732861e-02    9.9478554688e+04
    1.9109953195e-02    9.9483570312e+04
    1.9119888544e-02    9.9488312500e+04
    1.9129825756e-02    9.9492914062e+04
    1.9139762968e-02    9.9497398438e+04
    1.9149983302e-02    9.9501875000e+04
    1.9159922376e-02    9.9506148438e+04
    1.9169859588e-02    9.9510320312e+04
    1.9179798663e-02    9.9514429688e+04
    1.9189735875e-02    9.9518468750e+04
    1.9199959934e-02    9.9522539062e+04
    1.9209899008e-02    9.9526437500e+04
    1.9219838083e-02    9.9530304688e+04
    1.9229779020e-02    9.9534195312e+04
    1.9239719957e-02    9.9538156250e+04
    1.9249944016e-02    9.9542351562e+04
    1.9259884953e-02    9.9546562500e+04
    1.9269825891e-02    9.9550898438e+04
    1.9279768690e-02    9.9555398438e+04
    1.9289994612e-02    9.9560210938e+04
    1.9299937412e-02    9.9565054688e+04
    1.9309878349e-02    9.9570093750e+04
    1.9319821149e-02    9.9575351562e+04
    1.9329765812e-02    9.9580843750e+04
    1.9339993596e-02    9.9586726562e+04
    1.9349936396e-02    9.9592679688e+04
    1.9359881058e-02    9.9598789062e+04
    1.9369823858e-02    9.9604976562e+04
    1.9379768521e-02    9.9611007812e+04
    1.9389998168e-02    9.9616718750e+04
    1.9399942830e-02    9.9621382812e+04
    1.9409887493e-02    9.9624757812e+04
    1.9419834018e-02    9.9626445312e+04
    1.9429778680e-02    9.9626250000e+04
    1.9439725205e-02    9.9623750000e+04
[...]
    1.1513989419e-01    1.0120935156e+05
    1.1514991522e-01    1.0120934375e+05
    1.1515992880e-01    1.0120932031e+05
    1.1516994238e-01    1.0120930469e+05
    1.1517996341e-01    1.0120928906e+05
    1.1518997699e-01    1.0120928125e+05
    1.1519999802e-01    1.0120928906e+05
    1.1520969868e-01    1.0120928906e+05
    1.1521971971e-01    1.0120931250e+05
    1.1522973329e-01    1.0120932031e+05
    1.1523975432e-01    1.0120933594e+05
    1.1524976790e-01    1.0120933594e+05
    1.1525978148e-01    1.0120933594e+05
    1.1526980251e-01    1.0120933594e+05
    1.1527981609e-01    1.0120930469e+05
    1.1528983712e-01    1.0120928906e+05
    1.1529985070e-01    1.0120927344e+05
    1.1530987173e-01    1.0120925000e+05
    1.1531988531e-01    1.0120924219e+05
    1.1532990634e-01    1.0120922656e+05
    1.1533991992e-01    1.0120922656e+05
    1.1534993351e-01    1.0120922656e+05
    1.1535995454e-01    1.0120922656e+05
    1.1536996812e-01    1.0120922656e+05
    1.1537998915e-01    1.0120922656e+05
    1.1538968980e-01    1.0120922656e+05
    1.1539971083e-01    1.0120924219e+05
    1.1540972441e-01    1.0120925000e+05
    1.1541973799e-01    1.0120925781e+05
    1.1542975903e-01    1.0120927344e+05
    1.1543977261e-01    1.0120927344e+05
    1.1544979364e-01    1.0120927344e+05
    1.1545980722e-01    1.0120927344e+05
    1.1546982825e-01    1.0120925000e+05
    1.1547984183e-01    1.0120924219e+05
    1.1548986286e-01    1.0120922656e+05
    1.1549987644e-01    1.0120922656e+05
    1.1550989002e-01    1.0120921875e+05
    1.1551991105e-01    1.0120921094e+05
    1.1552992463e-01    1.0120921094e+05
    1.1553994566e-01    1.0120921094e+05
    1.1554995924e-01    1.0120919531e+05
    1.1555998027e-01    1.0120919531e+05
    1.1556999385e-01    1.0120919531e+05
    1.1557970196e-01    1.0120919531e+05
    1.1558971554e-01    1.0120918750e+05
    1.1559972912e-01    1.0120917969e+05
    1.1560975015e-01    1.0120916406e+05
    1.1561976373e-01    1.0120915625e+05
    1.1562978476e-01    1.0120915625e+05
    1.1563979834e-01    1.0120915625e+05
    1.1564981937e-01    1.0120916406e+05
    1.1565983295e-01    1.0120916406e+05
    1.1566985399e-01    1.0120917969e+05
    1.1567986757e-01    1.0120917969e+05
    1.1568988115e-01    1.0120917969e+05
    1.1569990218e-01    1.0120916406e+05
    1.1570991576e-01    1.0120916406e+05
    1.1571993679e-01    1.0120915625e+05
    1.1572995037e-01    1.0120914844e+05
    1.1573997140e-01    1.0120914844e+05
    1.1574998498e-01    1.0120914844e+05
    1.1575968564e-01    1.0120915625e+05
    1.1576970667e-01    1.0120915625e+05
    1.1577972025e-01    1.0120915625e+05
    1.1578974128e-01    1.0120916406e+05
    1.1579975486e-01    1.0120916406e+05
    1.1580977589e-01    1.0120916406e+05
    1.1581978947e-01    1.0120916406e+05
    1.1582981050e-01    1.0120916406e+05
    1.1583982408e-01    1.0120915625e+05
    1.1584983766e-01    1.0120914844e+05
    1.1585985869e-01    1.0120914844e+05
    1.1586987227e-01    1.0120912500e+05
    1.1587989330e-01    1.0120910156e+05
    1.1588990688e-01    1.0120910156e+05
    1.1589992791e-01    1.0120910156e+05
    1.1590994149e-01    1.0120910156e+05
    1.1591996253e-01    1.0120910156e+05
    1.1592997611e-01    1.0120911719e+05
    1.1593998969e-01    1.0120911719e+05
    1.1594969779e-01    1.0120911719e+05
    1.1595971137e-01    1.0120910156e+05
    1.1596973240e-01    1.0120910156e+05
    1.1597974598e-01    1.0120910156e+05
    1.1598976701e-01    1.0120910156e+05
    1.1599978060e-01    1.0120910156e+05
    1.1600980163e-01    1.0120910156e+05
    1.1601981521e-01    1.0120910156e+05
    1.1602982879e-01    1.0120909375e+05
    1.1603984982e-01    1.0120909375e+05
    1.1604986340e-01    1.0120908594e+05
    1.1605988443e-01    1.0120908594e+05
    1.1606989801e-01    1.0120908594e+05
    1.1607991904e-01    1.0120908594e+05
    1.1608993262e-01    1.0120908594e+05
    1.1609995365e-01    1.0120908594e+05
    1.1610996723e-01    1.0120908594e+05
    1.1611998081e-01    1.0120908594e+05
    1.1612968892e-01    1.0120907031e+05
    1.1613970250e-01    1.0120907031e+05
    1.1614972353e-01    1.0120907031e+05
    1.1615973711e-01    1.0120907031e+05
    1.1616975814e-01    1.0120906250e+05
    1.1617977172e-01    1.0120906250e+05
    1.1618978530e-01    1.0120906250e+05
    1.1619980633e-01    1.0120905469e+05
    1.1620981991e-01    1.0120905469e+05
    1.1621984094e-01    1.0120905469e+05
    1.1622985452e-01    1.0120903906e+05
    1.1623987556e-01    1.0120903906e+05
    1.1624988914e-01    1.0120903906e+05
    1.1625991017e-01    1.0120903906e+05
    1.1626992375e-01    1.0120903906e+05
    1.1627993733e-01    1.0120903906e+05
    1.1628995836e-01    1.0120903125e+05
    1.1629997194e-01    1.0120903125e+05
    1.1630999297e-01    1.0120903125e+05
    1.1631969362e-01    1.0120903125e+05
    1.1632971466e-01    1.0120902344e+05
    1.1633972824e-01    1.0120902344e+05
    1.1634974927e-01    1.0120902344e+05
    1.1635976285e-01    1.0120902344e+05
    1.1636977643e-01    1.0120902344e+05
    1.1637979746e-01    1.0120902344e+05
    1.1638981104e-01    1.0120902344e+05
    1.1639983207e-01    1.0120902344e+05
    1.1640984565e-01    1.0120900781e+05
    1.1641986668e-01    1.0120900781e+05
    1.1642988026e-01    1.0120900781e+05
    1.1643990129e-01    1.0120900000e+05
    1.1644991487e-01    1.0120900000e+05
    1.1645992845e-01    1.0120900000e+05
    1.1646994948e-01    1.0120900000e+05
    1.1647996306e-01    1.0120899219e+05
    1.1648998410e-01    1.0120899219e+05
    1.1649999768e-01    1.0120899219e+05
    1.1650970578e-01    1.0120897656e+05
    1.1651971936e-01    1.0120897656e+05
    1.1652974039e-01    1.0120897656e+05
    1.1653975397e-01    1.0120897656e+05
    1.1654976755e-01    1.0120897656e+05
    1.1655978858e-01    1.0120896875e+05
    1.1656980217e-01    1.0120896875e+05
    1.1657982320e-01    1.0120896875e+05
    1.1658983678e-01    1.0120896875e+05
    1.1659985781e-01    1.0120896875e+05
    1.1660987139e-01    1.0120896094e+05
    1.1661989242e-01    1.0120896094e+05
    1.1662990600e-01    1.0120896094e+05
    1.1663991958e-01    1.0120896094e+05
    1.1664994061e-01    1.0120896094e+05
    1.1665995419e-01    1.0120896094e+05
    1.1666997522e-01    1.0120894531e+05
    1.1667998880e-01    1.0120894531e+05
    1.1668969691e-01    1.0120893750e+05
    1.1669971049e-01    1.0120893750e+05
    1.1670973152e-01    1.0120892969e+05
    1.1671974510e-01    1.0120892969e+05
    1.1672975868e-01    1.0120892969e+05
    1.1673977971e-01    1.0120892969e+05
    1.1674979329e-01    1.0120892969e+05
    1.1675981432e-01    1.0120892969e+05
    1.1676982790e-01    1.0120891406e+05
    1.1677984893e-01    1.0120891406e+05
    1.1678986251e-01    1.0120891406e+05
    1.1679988354e-01    1.0120891406e+05
    1.1680989712e-01    1.0120891406e+05
    1.1681991071e-01    1.0120891406e+05
    1.1682993174e-01    1.0120890625e+05
    1.1683994532e-01    1.0120890625e+05
    1.1684996635e-01    1.0120890625e+05
    1.1685997993e-01    1.0120890625e+05
    1.1687000096e-01    1.0120889844e+05
    1.1687970161e-01    1.0120889844e+05
    1.1688972265e-01    1.0120889844e+05
    1.1689973623e-01    1.0120889844e+05
    1.1690974981e-01    1.0120889844e+05
    1.1691977084e-01    1.0120889844e+05
    1.1692978442e-01    1.0120888281e+05
    1.1693980545e-01    1.0120888281e+05
    1.1694981903e-01    1.0120888281e+05
    1.1695984006e-01    1.0120887500e+05
    1.1696985364e-01    1.0120887500e+05
    1.1697987467e-01    1.0120887500e+05
    1.1698988825e-01    1.0120887500e+05
    1.1699990183e-01    1.0120887500e+05
    1.1700992286e-01    1.0120887500e+05
    1.1701993644e-01    1.0120886719e+05
    1.1702995747e-01    1.0120886719e+05
    1.1703997105e-01    1.0120885156e+05
    1.1704999208e-01    1.0120885156e+05
    1.1705969274e-01    1.0120885156e+05
    1.1706971377e-01    1.0120885156e+05
    1.1707972735e-01    1.0120885156e+05
    1.1708974093e-01    1.0120885156e+05
    1.1709976196e-01    1.0120885156e+05
    1.1710977554e-01    1.0120885156e+05
    1.1711979657e-01    1.0120884375e+05
    1.1712981015e-01    1.0120884375e+05
    1.1713983119e-01    1.0120884375e+05
    1.1714984477e-01    1.0120884375e+05
    1.1715986580e-01    1.0120884375e+05
    1.1716987938e-01    1.0120884375e+05
    1.1717989296e-01    1.0120883594e+05
    1.1718991399e-01    1.0120883594e+05
    1.1719992757e-01    1.0120883594e+05
    1.1720994860e-01    1.0120883594e+05
    1.1721996218e-01    1.0120883594e+05
    1.1722998321e-01    1.0120883594e+05
    1.1723999679e-01    1.0120882031e+05
    1.1724970490e-01    1.0120882031e+05
    1.1725971848e-01    1.0120882031e+05
    1.1726973951e-01    1.0120881250e+05
    1.1727975309e-01    1.0120881250e+05
    1.1728976667e-01    1.0120881250e+05
    1.1729978770e-01    1.0120881250e+05
    1.1730980128e-01    1.0120881250e+05
    1.1731982231e-01    1.0120881250e+05
    1.1732983589e-01    1.0120880469e+05
    1.1733985692e-01    1.0120880469e+05
    1.1734987050e-01    1.0120878906e+05
    1.1735989153e-01    1.0120878906e+05
    1.1736990511e-01    1.0120878906e+05
    1.1737991869e-01    1.0120878125e+05
    1.1738993973e-01    1.0120878125e+05
    1.1739995331e-01    1.0120878125e+05
    1.1740997434e-01    1.0120878125e+05
    1.1741998792e-01    1.0120878125e+05
    1.1742969602e-01    1.0120878125e+05
    1.1743970960e-01    1.0120878125e+05
    1.1744973063e-01    1.0120878125e+05
    1.1745974422e-01    1.0120878125e+05
    1.1746976525e-01    1.0120878125e+05
    1.1747977883e-01    1.0120877344e+05
    1.1748979241e-01    1.0120877344e+05
    1.1749981344e-01    1.0120877344e+05
    1.1750982702e-01    1.0120877344e+05
    1.1751984805e-01    1.0120875781e+05
    1.1752986163e-01    1.0120875000e+05
    1.1753988266e-01    1.0120875000e+05
    1.1754989624e-01    1.0120874219e+05
    1.1755991727e-01    1.0120874219e+05
    1.1756993085e-01    1.0120874219e+05
    1.1757995188e-01    1.0120874219e+05
    1.1758996546e-01    1.0120874219e+05
    1.1759997904e-01    1.0120874219e+05
    1.1761000007e-01    1.0120872656e+05
    1.1761970073e-01    1.0120872656e+05
    1.1762972176e-01    1.0120872656e+05
    1.1763973534e-01    1.0120871875e+05
    1.1764975637e-01    1.0120871875e+05
    1.1765976995e-01    1.0120871094e+05
    1.1766979098e-01    1.0120871094e+05
    1.1767980456e-01    1.0120871094e+05
    1.1768982559e-01    1.0120871094e+05
    1.1769983917e-01    1.0120871094e+05
    1.1770985276e-01    1.0120871094e+05
    1.1771987379e-01    1.0120871094e+05
    1.1772988737e-01    1.0120871094e+05
    1.1773990840e-01    1.0120871094e+05
    1.1774992198e-01    1.0120871094e+05
    1.1775994301e-01    1.0120871094e+05
    1.1776995659e-01    1.0120871094e+05
    1.1777997762e-01    1.0120871094e+05
    1.1778999120e-01    1.0120869531e+05
    1.1779969931e-01    1.0120869531e+05
    1.1780971289e-01    1.0120868750e+05
    1.1781972647e-01    1.0120868750e+05
    1.1782974750e-01    1.0120868750e+05
    1.1783976108e-01    1.0120867969e+05
    1.1784978211e-01    1.0120867969e+05
    1.1785979569e-01    1.0120867969e+05
    1.1786981672e-01    1.0120866406e+05
    1.1787983030e-01    1.0120866406e+05
    1.1788985133e-01    1.0120866406e+05
    1.1789986491e-01    1.0120866406e+05
    1.1790988594e-01    1.0120866406e+05
    1.1791989952e-01    1.0120866406e+05
    1.1792991310e-01    1.0120866406e+05
    1.1793993413e-01    1.0120865625e+05
    1.1794994771e-01    1.0120865625e+05
    1.1795996875e-01    1.0120865625e+05
    1.1796998233e-01    1.0120865625e+05
    1.1797969043e-01    1.0120865625e+05
    1.1798970401e-01    1.0120864844e+05
    1.1799972504e-01    1.0120864844e+05
    1.1800973862e-01    1.0120864844e+05
    1.1801975965e-01    1.0120864844e+05
    1.1802977324e-01    1.0120864844e+05
    1.1803978682e-01    1.0120864844e+05
    1.1804980785e-01    1.0120864844e+05
    1.1805982143e-01    1.0120864844e+05
    1.1806984246e-01    1.0120864844e+05
    1.1807985604e-01    1.0120863281e+05
    1.1808987707e-01    1.0120862500e+05
    1.1809989065e-01    1.0120862500e+05
    1.1810991168e-01    1.0120862500e+05
    1.1811992526e-01    1.0120862500e+05
    1.1812994629e-01    1.0120862500e+05
    1.1813995987e-01    1.0120862500e+05
    1.1814997345e-01    1.0120862500e+05
    1.1815999448e-01    1.0120861719e+05
    1.1816969514e-01    1.0120861719e+05
    1.1817971617e-01    1.0120861719e+05
    1.1818972975e-01    1.0120861719e+05
    1.1819975078e-01    1.0120861719e+05
    1.1820976436e-01    1.0120861719e+05
    1.1821978539e-01    1.0120860156e+05
    1.1822979897e-01    1.0120860156e+05
    1.1823982000e-01    1.0120860156e+05
    1.1824983358e-01    1.0120860156e+05
    1.1825984716e-01    1.0120859375e+05
    1.1826986820e-01    1.0120858594e+05
    1.1827988178e-01    1.0120858594e+05
    1.1828990281e-01    1.0120858594e+05
    1.1829991639e-01    1.0120858594e+05
    1.1830993742e-01    1.0120858594e+05
    1.1831995100e-01    1.0120857031e+05
    1.1832997203e-01    1.0120857031e+05
    1.1833998561e-01    1.0120857031e+05
    1.1834969372e-01    1.0120857031e+05
    1.1835970730e-01    1.0120857031e+05
    1.1836972088e-01    1.0120857031e+05
    1.1837974191e-01    1.0120858594e+05
    1.1838975549e-01    1.0120858594e+05
    1.1839977652e-01    1.0120858594e+05
    1.1840979010e-01    1.0120858594e+05
    1.1841981113e-01    1.0120858594e+05
    1.1842982471e-01    1.0120857031e+05
    1.1843984574e-01    1.0120857031e+05
    1.1844985932e-01    1.0120855469e+05
    1.1845988035e-01    1.0120853906e+05
    1.1846989393e-01    1.0120853125e+05
    1.1847990751e-01    1.0120852344e+05
    1.1848992854e-01    1.0120850781e+05
    1.1849994212e-01    1.0120850000e+05
    1.1850996315e-01    1.0120850000e+05
    1.1851997674e-01    1.0120850781e+05
    1.1852999777e-01    1.0120852344e+05
    1.1853969842e-01    1.0120852344e+05
    1.1854971945e-01    1.0120853125e+05
    1.1855973303e-01    1.0120853906e+05
    1.1856975406e-01    1.0120853125e+05
    1.1857976764e-01    1.0120853125e+05
    1.1858978122e-01    1.0120852344e+05
    1.1859980226e-01    1.0120850781e+05
    1.1860981584e-01    1.0120850000e+05
    1.1861983687e-01    1.0120849219e+05
    1.1862985045e-01    1.0120849219e+05
    1.1863987148e-01    1.0120849219e+05
    1.1864988506e-01    1.0120850000e+05
    1.1865990609e-01    1.0120850000e+05
    1.1866991967e-01    1.0120850781e+05
    1.1867994070e-01    1.0120850781e+05
    1.1868995428e-01    1.0120850781e+05
    1.1869996786e-01    1.0120850781e+05
    1.1870998889e-01    1.0120850781e+05
    1.1871968955e-01    1.0120850781e+05
    1.1872971058e-01    1.0120850781e+05
    1.1873972416e-01    1.0120850781e+05
    1.1874974519e-01    1.0120850000e+05
    1.1875975877e-01    1.0120850000e+05
    1.1876977980e-01    1.0120849219e+05
    1.1877979338e-01    1.0120847656e+05
    1.1878981441e-01    1.0120846875e+05
    1.1879982799e-01    1.0120846094e+05
    1.1880984157e-01    1.0120846094e+05
    1.1881986260e-01    1.0120846094e+05
    1.1882987618e-01    1.0120846094e+05
    1.1883989722e-01    1.0120846875e+05
    1.1884991080e-01    1.0120846875e+05
    1.1885993183e-01    1.0120846875e+05
    1.1886994541e-01    1.0120846875e+05
    1.1887996644e-01    1.0120846875e+05
    1.1888998002e-01    1.0120846875e+05
    1.1890000105e-01    1.0120846094e+05
    1.1890970170e-01    1.0120846094e+05
    1.1891971529e-01    1.0120846094e+05
    1.1892973632e-01    1.0120844531e+05
    1.1893974990e-01    1.0120844531e+05
    1.1894977093e-01    1.0120844531e+05
    1.1895978451e-01    1.0120846094e+05
    1.1896980554e-01    1.0120846094e+05
    1.1897981912e-01    1.0120846875e+05
    1.1898984015e-01    1.0120847656e+05
    1.1899985373e-01    1.0120847656e+05
    1.1900987476e-01    1.0120846875e+05
    1.1901988834e-01    1.0120846875e+05
    1.1902990937e-01    1.0120846094e+05
    1.1903992295e-01    1.0120844531e+05
    1.1904993653e-01    1.0120843750e+05
    1.1905995756e-01    1.0120842969e+05
    1.1906997114e-01    1.0120841406e+05
    1.1907999218e-01    1.0120841406e+05
    1.1908969283e-01    1.0120841406e+05
    1.1909971386e-01    1.0120841406e+05
    1.1910972744e-01    1.0120841406e+05
    1.1911974847e-01    1.0120841406e+05
    1.1912976205e-01    1.0120841406e+05
    1.1913978308e-01    1.0120841406e+05
    1.1914979666e-01    1.0120841406e+05
    1.1915981025e-01    1.0120840625e+05
    1.1916983128e-01    1.0120839844e+05
    1.1917984486e-01    1.0120839844e+05
    1.1918986589e-01    1.0120837500e+05
    1.1919987947e-01    1.0120837500e+05
    1.1920990050e-01    1.0120837500e+05
    1.1921991408e-01    1.0120838281e+05
    1.1922993511e-01    1.0120839844e+05
    1.1923994869e-01    1.0120839844e+05
    1.1924996972e-01    1.0120839844e+05
    1.1925998330e-01    1.0120839844e+05
    1.1926968396e-01    1.0120839844e+05
    1.1927970499e-01    1.0120839844e+05
    1.1928971857e-01    1.0120838281e+05
    1.1929973960e-01    1.0120837500e+05
    1.1930975318e-01    1.0120837500e+05
    1.1931977421e-01    1.0120836719e+05
    1.1932978779e-01    1.0120836719e+05
    1.1933980882e-01    1.0120835156e+05
    1.1934982240e-01    1.0120835156e+05
    1.1935984343e-01    1.0120834375e+05
    1.1936985701e-01    1.0120833594e+05
    1.1937987059e-01    1.0120833594e+05
    1.1938989162e-01    1.0120833594e+05
    1.1939990520e-01    1.0120833594e+05
    1.1940992624e-01    1.0120833594e+05
    1.1941993982e-01    1.0120833594e+05
    1.1942996085e-01    1.0120833594e+05
    1.1943997443e-01    1.0120833594e+05
    1.1944999546e-01    1.0120833594e+05
    1.1945969611e-01    1.0120833594e+05
    1.1946971714e-01    1.0120833594e+05
    1.1947973073e-01    1.0120833594e+05
    1.1948974431e-01    1.0120832031e+05
    1.1949976534e-01    1.0120831250e+05
    1.1950977892e-01    1.0120831250e+05
    1.1951979995e-01    1.0120831250e+05
    1.1952981353e-01    1.0120832031e+05
    1.1953983456e-01    1.0120832031e+05
    1.1954984814e-01    1.0120833594e+05
    1.1955986917e-01    1.0120833594e+05
    1.1956988275e-01    1.0120833594e+05
    1.1957990378e-01    1.0120833594e+05
    1.1958991736e-01    1.0120833594e+05
    1.1959993839e-01    1.0120832031e+05
    1.1960995197e-01    1.0120831250e+05
    1.1961996555e-01    1.0120828906e+05
    1.1962998658e-01    1.0120828906e+05
    1.1963968724e-01    1.0120828906e+05
    1.1964970827e-01    1.0120828125e+05
    1.1965972185e-01    1.0120828125e+05
    1.1966974288e-01    1.0120828125e+05
    1.1967975646e-01    1.0120828125e+05
    1.1968977749e-01    1.0120828125e+05
    1.1969979107e-01    1.0120828125e+05
    1.1970981210e-01    1.0120828906e+05
    1.1971982569e-01    1.0120828906e+05
    1.1972983927e-01    1.0120828906e+05
    1.1973986030e-01    1.0120828125e+05
    1.1974987388e-01    1.0120828125e+05
    1.1975989491e-01    1.0120827344e+05
    1.1976990849e-01    1.0120827344e+05
    1.1977992952e-01    1.0120825781e+05
    1.1978994310e-01    1.0120827344e+05
    1.1979996413e-01    1.0120827344e+05
    1.1980997771e-01    1.0120827344e+05
    1.1981999874e-01    1.0120827344e+05
    1.1982969940e-01    1.0120827344e+05
    1.1983971298e-01    1.0120827344e+05
    1.1984973401e-01    1.0120827344e+05
    1.1985974759e-01    1.0120825781e+05
    1.1986976862e-01    1.0120825000e+05
    1.1987978220e-01    1.0120824219e+05
    1.1988980323e-01    1.0120824219e+05
    1.1989981681e-01    1.0120825000e+05
    1.1990983784e-01    1.0120825000e+05
    1.1991985142e-01    1.0120825000e+05
    1.1992987245e-01    1.0120824219e+05
    1.1993988603e-01    1.0120822656e+05
    1.1994990706e-01    1.0120822656e+05
    1.1995992064e-01    1.0120822656e+05
    1.1996993423e-01    1.0120822656e+05
    1.1997995526e-01    1.0120822656e+05
    1.1998996884e-01    1.0120822656e+05
    1.1999998987e-01    1.0120822656e+05
endcurve
