Curveplot
LS-DYNA keyword deck by LS-PrePost                          
Time
Pressure
Defined Connection
Pressure @ 104 #pts=7001
* Minval=     9.2072710938e+04 at time=         0.0372595936
* Maxval=     1.3143350000e+05 at time=         0.0231098644
    0.0000000000e+00    1.0119997656e+05
    9.9483804661e-06    1.0119997656e+05
    1.9993580281e-05    1.0119997656e+05
    2.9991337215e-05    1.0119997656e+05
    3.9972121158e-05    1.0119997656e+05
    4.9950773246e-05    1.0119997656e+05
    5.9993370087e-05    1.0119997656e+05
    6.9975096267e-05    1.0119997656e+05
    7.9978381109e-05    1.0119997656e+05
    8.9948996902e-05    1.0119997656e+05
    9.9943623354e-05    1.0119997656e+05
    1.0994826152e-04    1.0119999219e+05
    1.1995078239e-04    1.0119991406e+05
    1.2994052668e-04    1.0119991406e+05
    1.3998252689e-04    1.0119991406e+05
    1.4999171253e-04    1.0119992969e+05
    1.5995635476e-04    1.0119992969e+05
    1.6994576436e-04    1.0119992969e+05
    1.7995250528e-04    1.0119992969e+05
    1.8996889412e-04    1.0119993750e+05
    1.9998700009e-04    1.0120003125e+05
    2.0999861590e-04    1.0119978906e+05
    2.1999560704e-04    1.0119991406e+05
    2.2996972257e-04    1.0119996094e+05
    2.3991272610e-04    1.0119957031e+05
    2.4990833481e-04    1.0119980469e+05
    2.5995151373e-04    1.0119958594e+05
    2.6994047221e-04    1.0119958594e+05
    2.7995355777e-04    1.0119953906e+05
    2.8997971094e-04    1.0119953906e+05
    2.9991945485e-04    1.0119959375e+05
    3.0996589339e-04    1.0119935156e+05
    3.1992024742e-04    1.0119939844e+05
    3.2997969538e-04    1.0119909375e+05
    3.3994112164e-04    1.0119935156e+05
    3.4990292625e-04    1.0119953125e+05
    3.5996743827e-04    1.0119953906e+05
    3.6992528476e-04    1.0119952344e+05
    3.7998461630e-04    1.0119946094e+05
    3.8993224734e-04    1.0119964844e+05
    3.9998014108e-04    1.0119947656e+05
    4.0991045535e-04    1.0119903906e+05
    4.1993995546e-04    1.0119910156e+05
    4.2995819240e-04    1.0119910156e+05
    4.3996350723e-04    1.0119912500e+05
    4.4995380449e-04    1.0119883594e+05
    4.5992748346e-04    1.0119858594e+05
    4.6999883489e-04    1.0119883594e+05
    4.7993427143e-04    1.0119878906e+05
    4.8996572150e-04    1.0119849219e+05
    4.9997516908e-04    1.0119835156e+05
    5.0996057689e-04    1.0119871094e+05
    5.1991996588e-04    1.0119858594e+05
    5.2997464081e-04    1.0119877344e+05
    5.3987733554e-04    1.0119861719e+05
    5.4999912390e-04    1.0119883594e+05
    5.5996509036e-04    1.0119860156e+05
    5.6989747100e-04    1.0119878125e+05
    5.7992315851e-04    1.0119880469e+05
    5.8991368860e-04    1.0119891406e+05
    5.9999810765e-04    1.0119914844e+05
    6.0991250211e-04    1.0119877344e+05
    6.1991909752e-04    1.0119872656e+05
    6.2988395803e-04    1.0119822656e+05
    6.3994148513e-04    1.0119839844e+05
    6.4995518187e-04    1.0119846094e+05
    6.5992277814e-04    1.0119835156e+05
    6.6998222610e-04    1.0119855469e+05
    6.7999324529e-04    1.0119846094e+05
    6.8995356560e-04    1.0119808594e+05
    6.9986045128e-04    1.0119828906e+05
    7.0985709317e-04    1.0119796094e+05
    7.1994465543e-04    1.0119821094e+05
    7.2997657117e-04    1.0119853125e+05
    7.3995010462e-04    1.0119852344e+05
    7.4986234540e-04    1.0119881250e+05
    7.5986306183e-04    1.0119832031e+05
    7.6995335985e-04    1.0119839844e+05
    7.7997980407e-04    1.0119839844e+05
    7.8993954230e-04    1.0119834375e+05
    7.9998729052e-04    1.0119828125e+05
    8.0996524775e-04    1.0119850000e+05
    8.1987032900e-04    1.0119857031e+05
    8.2986149937e-04    1.0119840625e+05
    8.3994021406e-04    1.0119849219e+05
    8.4994250210e-04    1.0119857031e+05
    8.5986568592e-04    1.0119871875e+05
    8.6987396935e-04    1.0119864844e+05
    8.7996863294e-04    1.0119864844e+05
    8.8998035062e-04    1.0119878125e+05
    8.9990586275e-04    1.0119886719e+05
    9.0991519392e-04    1.0119878906e+05
    9.1983447783e-04    1.0119868750e+05
    9.2983682407e-04    1.0119875000e+05
    9.3992328038e-04    1.0119872656e+05
    9.4991567312e-04    1.0119875000e+05
    9.5999141922e-04    1.0119875000e+05
    9.6996943466e-04    1.0119864844e+05
    9.7984599415e-04    1.0119859375e+05
    9.8998867907e-04    1.0119846094e+05
    9.9984265398e-04    1.0119864844e+05
    1.0099647334e-03    1.0119853125e+05
    1.0199806420e-03    1.0119896094e+05
    1.0298871202e-03    1.0119897656e+05
    1.0398735758e-03    1.0119881250e+05
    1.0499405907e-03    1.0119886719e+05
    1.0598939843e-03    1.0119881250e+05
    1.0699266568e-03    1.0119867969e+05
    1.0798418662e-03    1.0119872656e+05
    1.0898358887e-03    1.0119871094e+05
    1.0999093065e-03    1.0119861719e+05
    1.1098603718e-03    1.0119828906e+05
    1.1198900174e-03    1.0119824219e+05
    1.1299996404e-03    1.0119827344e+05
    1.1399823707e-03    1.0119808594e+05
    1.1498330859e-03    1.0119832031e+05
    1.1599723948e-03    1.0119846875e+05
    1.1699802708e-03    1.0119887500e+05
    1.1798506603e-03    1.0119886719e+05
    1.1897982331e-03    1.0119899219e+05
    1.1998238042e-03    1.0119894531e+05
    1.2099291198e-03    1.0119877344e+05
    1.2198914774e-03    1.0119885156e+05
    1.2299316004e-03    1.0119887500e+05
    1.2398248073e-03    1.0119844531e+05
    1.2497951975e-03    1.0119883594e+05
    1.2598437024e-03    1.0119868750e+05
    1.2699713698e-03    1.0119880469e+05
    1.2799471151e-03    1.0119875000e+05
    1.2897651177e-03    1.0119871875e+05
    1.2998933671e-03    1.0119862500e+05
    1.3098634081e-03    1.0119860156e+05
    1.3199110981e-03    1.0119866406e+05
    1.3297955738e-03    1.0119875781e+05
    1.3397561852e-03    1.0119886719e+05
    1.3497956097e-03    1.0119885156e+05
    1.3599150116e-03    1.0119883594e+05
    1.3698631665e-03    1.0119866406e+05
    1.3798894361e-03    1.0119849219e+05
    1.3899926562e-03    1.0119868750e+05
    1.3999202056e-03    1.0119866406e+05
    1.4099251712e-03    1.0119849219e+05
    1.4197486453e-03    1.0119858594e+05
    1.4299093746e-03    1.0119872656e+05
    1.4398873318e-03    1.0119897656e+05
    1.4499423560e-03    1.0119908594e+05
    1.4598087873e-03    1.0119911719e+05
    1.4697521692e-03    1.0119896094e+05
    1.4797732001e-03    1.0119889844e+05
    1.4898723457e-03    1.0119900781e+05
    1.4997752151e-03    1.0119902344e+05
    1.5097561991e-03    1.0119899219e+05
    1.5198145993e-03    1.0119885156e+05
    1.5299526276e-03    1.0119896094e+05
    1.5398875112e-03    1.0119897656e+05
    1.5498996945e-03    1.0119899219e+05
    1.5599917388e-03    1.0119902344e+05
    1.5698722564e-03    1.0119902344e+05
    1.5798306558e-03    1.0119917969e+05
    1.5898670536e-03    1.0119910156e+05
    1.5999842435e-03    1.0119896094e+05
    1.6098814085e-03    1.0119894531e+05
    1.6198569210e-03    1.0119883594e+05
    1.6299117124e-03    1.0119888281e+05
    1.6397397267e-03    1.0119878906e+05
    1.6499555204e-03    1.0119867969e+05
    1.6599419760e-03    1.0119864844e+05
    1.6696930397e-03    1.0119864844e+05
    1.6798393335e-03    1.0119863281e+05
    1.6897476744e-03    1.0119844531e+05
    1.6997359926e-03    1.0119853125e+05
    1.7098051030e-03    1.0119846875e+05
    1.7199567519e-03    1.0119837500e+05
    1.7298616003e-03    1.0119828125e+05
    1.7398463096e-03    1.0119825000e+05
    1.7499133246e-03    1.0119825781e+05
    1.7597234109e-03    1.0119794531e+05
    1.7699559685e-03    1.0119785156e+05
    1.7799297348e-03    1.0119778906e+05
    1.7899861559e-03    1.0119785156e+05
    1.7997755203e-03    1.0119771094e+05
    1.8096452113e-03    1.0119761719e+05
    1.8199530896e-03    1.0119752344e+05
    1.8299903022e-03    1.0119741406e+05
    1.8397495151e-03    1.0119746094e+05
    1.8499556463e-03    1.0119753906e+05
    1.8598808674e-03    1.0119760156e+05
    1.8698900240e-03    1.0119758594e+05
    1.8799847458e-03    1.0119778906e+05
    1.8897883128e-03    1.0119782031e+05
    1.8996745348e-03    1.0119785156e+05
    1.9096453907e-03    1.0119796875e+05
    1.9197025103e-03    1.0119802344e+05
    1.9298477564e-03    1.0119822656e+05
    1.9396876451e-03    1.0119828906e+05
    1.9496126333e-03    1.0119835156e+05
    1.9596244674e-03    1.0119832031e+05
    1.9697253592e-03    1.0119835156e+05
    1.9799170550e-03    1.0119843750e+05
    1.9897883758e-03    1.0119852344e+05
    1.9997470081e-03    1.0119858594e+05
    2.0097955130e-03    1.0119864844e+05
    2.0199352875e-03    1.0119878125e+05
    2.0297404844e-03    1.0119881250e+05
    2.0396334585e-03    1.0119896094e+05
    2.0496093202e-03    1.0119891406e+05
    2.0596405957e-03    1.0119871875e+05
    2.0697158761e-03    1.0119797656e+05
    2.0798309706e-03    1.0119796094e+05
    2.0899875090e-03    1.0119800000e+05
    2.0997188985e-03    1.0119794531e+05
    2.1098928992e-03    1.0119793750e+05
    2.1196508314e-03    1.0119803906e+05
    2.1298860665e-03    1.0119808594e+05
    2.1396456286e-03    1.0119812500e+05
    2.1498810966e-03    1.0119815625e+05
    2.1596371662e-03    1.0119821875e+05
    2.1698563360e-03    1.0119716406e+05
    2.1796312649e-03    1.0119671094e+05
    2.1898385603e-03    1.0119671094e+05
    2.1996116266e-03    1.0119691406e+05
    2.2097944748e-03    1.0119709375e+05
    2.2199896630e-03    1.0119728125e+05
    2.2297408432e-03    1.0119749219e+05
    2.2399099544e-03    1.0119753125e+05
    2.2496480960e-03    1.0119760156e+05
    2.2598607466e-03    1.0119760156e+05
    2.2696573287e-03    1.0119752344e+05
    2.2798993159e-03    1.0119764844e+05
    2.2896388546e-03    1.0119781250e+05
    2.2997800261e-03    1.0119778906e+05
    2.3095712531e-03    1.0119653125e+05
    2.3197825067e-03    1.0119667969e+05
    2.3295776919e-03    1.0119678906e+05
    2.3398457561e-03    1.0119616406e+05
    2.3496942595e-03    1.0119621094e+05
    2.3595783859e-03    1.0119641406e+05
    2.3698851001e-03    1.0119643750e+05
    2.3797953036e-03    1.0119647656e+05
    2.3897076026e-03    1.0119672656e+05
    2.3996329401e-03    1.0119685156e+05
    2.4099929724e-03    1.0119691406e+05
    2.4199262261e-03    1.0119711719e+05
    2.4298618082e-03    1.0119719531e+05
    2.4397983216e-03    1.0119732031e+05
    2.4497094564e-03    1.0119741406e+05
    2.4595861323e-03    1.0119750781e+05
    2.4699091446e-03    1.0119767969e+05
    2.4797332007e-03    1.0119771094e+05
    2.4899772834e-03    1.0119781250e+05
    2.4997186847e-03    1.0119788281e+05
    2.5098470505e-03    1.0119668750e+05
    2.5199002121e-03    1.0119622656e+05
    2.5298784021e-03    1.0119638281e+05
    2.5397825520e-03    1.0119649219e+05
    2.5496135931e-03    1.0119650000e+05
    2.5597957429e-03    1.0119641406e+05
    2.5699008256e-03    1.0119656250e+05
    2.5799300056e-03    1.0119658594e+05
    2.5898844469e-03    1.0119678906e+05
    2.5997653138e-03    1.0119705469e+05
    2.6099802926e-03    1.0119722656e+05
    2.6197133120e-03    1.0119741406e+05
    2.6297764853e-03    1.0119753906e+05
    2.6397637557e-03    1.0119761719e+05
    2.6496758219e-03    1.0119774219e+05
    2.6599061675e-03    1.0119771875e+05
    2.6696682908e-03    1.0119778906e+05
    2.6797445025e-03    1.0119768750e+05
    2.6897434145e-03    1.0119781250e+05
    2.6996661909e-03    1.0119796094e+05
    2.7098907158e-03    1.0119796094e+05
    2.7196609881e-03    1.0119800781e+05
    2.7297285851e-03    1.0119821875e+05
    2.7397177182e-03    1.0119835156e+05
    2.7499948628e-03    1.0119842969e+05
    2.7598268352e-03    1.0119850000e+05
    2.7699426282e-03    1.0119828906e+05
    2.7799771633e-03    1.0119777344e+05
    2.7899320703e-03    1.0119793750e+05
    2.7998071164e-03    1.0119797656e+05
    2.8099527117e-03    1.0119722656e+05
    2.8196685016e-03    1.0119649219e+05
    2.8299929108e-03    1.0119663281e+05
    2.8398891445e-03    1.0119658594e+05
    2.8497038875e-03    1.0119578906e+05
    2.8597714845e-03    1.0119606250e+05
    2.8697527014e-03    1.0119591406e+05
    2.8799762949e-03    1.0119603125e+05
    2.8897835873e-03    1.0119608594e+05
    2.8998283669e-03    1.0119627344e+05
    2.9097832739e-03    1.0119613281e+05
    2.9199651908e-03    1.0119616406e+05
    2.9297384899e-03    1.0119633594e+05
    2.9397336766e-03    1.0119646094e+05
    2.9499426018e-03    1.0119650781e+05
    2.9597471002e-03    1.0119653906e+05
    2.9697602149e-03    1.0119664844e+05
    2.9799730983e-03    1.0119646094e+05
    2.9897852801e-03    1.0119641406e+05
    2.9997918755e-03    1.0119641406e+05
    3.0099833384e-03    1.0119553906e+05
    3.0197780579e-03    1.0119499219e+05
    3.0297518242e-03    1.0119489844e+05
    3.0398950912e-03    1.0119496094e+05
    3.0499212444e-03    1.0119497656e+05
    3.0598302837e-03    1.0119500000e+05
    3.0698920600e-03    1.0119481250e+05
    3.0798292719e-03    1.0119481250e+05
    3.0899050180e-03    1.0119486719e+05
    3.0998487491e-03    1.0119491406e+05
    3.1099151820e-03    1.0119478906e+05
    3.1198409852e-03    1.0119488281e+05
    3.1298734248e-03    1.0119487500e+05
    3.1400003936e-03    1.0119494531e+05
    3.1499671750e-03    1.0119491406e+05
    3.1597721390e-03    1.0119497656e+05
    3.1698795501e-03    1.0119497656e+05
    3.1798044220e-03    1.0119496875e+05
    3.1899919268e-03    1.0119491406e+05
    3.1999724451e-03    1.0119500781e+05
    3.2099562231e-03    1.0119496094e+05
    3.2199234702e-03    1.0119533594e+05
    3.2298527658e-03    1.0119533594e+05
    3.2399187330e-03    1.0119503906e+05
    3.2498841174e-03    1.0119539844e+05
    3.2599042170e-03    1.0119535156e+05
    3.2699226867e-03    1.0119541406e+05
    3.2798734028e-03    1.0119541406e+05
    3.2900029328e-03    1.0119544531e+05
    3.2999995165e-03    1.0119555469e+05
    3.3099653665e-03    1.0119557031e+05
    3.3199251629e-03    1.0119534375e+05
    3.3299291972e-03    1.0119547656e+05
    3.3399364911e-03    1.0119566406e+05
    3.3499025740e-03    1.0119571094e+05
    3.3599163871e-03    1.0119571094e+05
    3.3698980696e-03    1.0119571094e+05
    3.3798632212e-03    1.0119560156e+05
    3.3899613190e-03    1.0119586719e+05
    3.3999239095e-03    1.0119600000e+05
    3.4098525066e-03    1.0119621094e+05
    3.4198861104e-03    1.0119615625e+05
    3.4299604595e-03    1.0119627344e+05
    3.4399675205e-03    1.0119637500e+05
    3.4498765599e-03    1.0119633594e+05
    3.4599027131e-03    1.0119636719e+05
    3.4699155949e-03    1.0119613281e+05
    3.4799834248e-03    1.0119572656e+05
    3.4899939783e-03    1.0119586719e+05
    3.4998853225e-03    1.0119564844e+05
    3.5098872613e-03    1.0119572656e+05
    3.5199560225e-03    1.0119539844e+05
    3.5299267620e-03    1.0119549219e+05
    3.5399633925e-03    1.0119534375e+05
    3.5498780198e-03    1.0119546094e+05
    3.5598541144e-03    1.0119550781e+05
    3.5698842257e-03    1.0119518750e+05
    3.5799962934e-03    1.0119512500e+05
    3.5899369977e-03    1.0119514844e+05
    3.5999696702e-03    1.0119527344e+05
    3.6098246928e-03    1.0119546094e+05
    3.6199535243e-03    1.0119528906e+05
    3.6299058702e-03    1.0119552344e+05
    3.6399306264e-03    1.0119572656e+05
    3.6500019487e-03    1.0119563281e+05
    3.6598828156e-03    1.0119580469e+05
    3.6698374897e-03    1.0119585156e+05
    3.6798112560e-03    1.0119589844e+05
    3.6898446269e-03    1.0119599219e+05
    3.6999129225e-03    1.0119605469e+05
    3.7097951863e-03    1.0119608594e+05
    3.7199503276e-03    1.0119625000e+05
    3.7299138494e-03    1.0119633594e+05
    3.7399337161e-03    1.0119638281e+05
    3.7499694154e-03    1.0119641406e+05
    3.7598300260e-03    1.0119635156e+05
    3.7699546665e-03    1.0119657031e+05
    3.7798655685e-03    1.0119652344e+05
    3.7898495793e-03    1.0119677344e+05
    3.7998314947e-03    1.0119678906e+05
    3.8098616060e-03    1.0119669531e+05
    3.8199382834e-03    1.0119653125e+05
    3.8299979642e-03    1.0119650000e+05
    3.8399314508e-03    1.0119627344e+05
    3.8498251233e-03    1.0119639844e+05
    3.8600098342e-03    1.0119639844e+05
    3.8700087462e-03    1.0119631250e+05
    3.8799699396e-03    1.0119639844e+05
    3.8898163475e-03    1.0119633594e+05
    3.8998513483e-03    1.0119641406e+05
    3.9099249989e-03    1.0119647656e+05
    3.9198375307e-03    1.0119649219e+05
    3.9299577475e-03    1.0119669531e+05
    3.9399033412e-03    1.0119658594e+05
    3.9498638362e-03    1.0119665625e+05
    3.9598373696e-03    1.0119665625e+05
    3.9698700421e-03    1.0119660156e+05
    3.9798994549e-03    1.0119658594e+05
    3.9899600670e-03    1.0119666406e+05
    3.9998157881e-03    1.0119658594e+05
    4.0099164471e-03    1.0119634375e+05
    4.0198108181e-03    1.0119633594e+05
    4.0299813263e-03    1.0119616406e+05
    4.0399217978e-03    1.0119597656e+05
    4.0498767048e-03    1.0119577344e+05
    4.0598427877e-03    1.0119571094e+05
    4.0698284283e-03    1.0119578906e+05
    4.0798308328e-03    1.0119584375e+05
    4.0898500010e-03    1.0119578125e+05
    4.0998854674e-03    1.0119560156e+05
    4.1099321097e-03    1.0119572656e+05
    4.1199913248e-03    1.0119552344e+05
    4.1298214346e-03    1.0119482031e+05
    4.1399006732e-03    1.0119386719e+05
    4.1499729268e-03    1.0119371094e+05
    4.1597993113e-03    1.0119403906e+05
    4.1698827408e-03    1.0119425781e+05
    4.1799736209e-03    1.0119430469e+05
    4.1898204945e-03    1.0119421875e+05
    4.1999123059e-03    1.0119452344e+05
    4.2100050487e-03    1.0119464844e+05
    4.2198523879e-03    1.0119460156e+05
    4.2299488559e-03    1.0119472656e+05
    4.2397975922e-03    1.0119481250e+05
    4.2498912662e-03    1.0119484375e+05
    4.2599844746e-03    1.0119497656e+05
    4.2698313482e-03    1.0119485156e+05
    4.2799250223e-03    1.0119496094e+05
    4.2897718959e-03    1.0119489844e+05
    4.2998637073e-03    1.0119310156e+05
    4.3099550530e-03    1.0119177344e+05
    4.3198005296e-03    1.0119169531e+05
    4.3298914097e-03    1.0119172656e+05
    4.3399813585e-03    1.0119200781e+05
    4.3498221785e-03    1.0119214844e+05
    4.3599079363e-03    1.0119249219e+05
    4.3699964881e-03    1.0119160156e+05
    4.3798391707e-03    1.0119075000e+05
    4.3899286538e-03    1.0119082031e+05
    4.3997690082e-03    1.0119080469e+05
    4.4098575599e-03    1.0119091406e+05
    4.4199563563e-03    1.0119100000e+05
    4.4298139401e-03    1.0119089844e+05
    4.4399066828e-03    1.0119093750e+05
    4.4500092044e-03    1.0119124219e+05
    4.4598802924e-03    1.0119131250e+05
    4.4700093567e-03    1.0119147656e+05
    4.4798972085e-03    1.0119171094e+05
    4.4897915795e-03    1.0119192969e+05
    4.4999402016e-03    1.0119194531e+05
    4.5098573901e-03    1.0119215625e+05
    4.5197801664e-03    1.0119242969e+05
    4.5299651101e-03    1.0119262500e+05
    4.5398902148e-03    1.0119261719e+05
    4.5498316176e-03    1.0119099219e+05
    4.5597925782e-03    1.0119112500e+05
    4.5697796158e-03    1.0119110156e+05
    4.5797699131e-03    1.0119127344e+05
    4.5900018886e-03    1.0119127344e+05
    4.5999870636e-03    1.0119128906e+05
    4.6099978499e-03    1.0119133594e+05
    4.6200049110e-03    1.0119133594e+05
    4.6300138347e-03    1.0119131250e+05
    4.6397866681e-03    1.0119133594e+05
    4.6498323791e-03    1.0119134375e+05
    4.6598841436e-03    1.0119141406e+05
    4.6699428931e-03    1.0119140625e+05
    4.6799993142e-03    1.0119175000e+05
    4.6898038127e-03    1.0119172656e+05
    4.6998625621e-03    1.0119181250e+05
    4.7099441290e-03    1.0119189844e+05
    4.7197816893e-03    1.0119203125e+05
    4.7298581339e-03    1.0119215625e+05
    4.7399452887e-03    1.0119218750e+05
    4.7498131171e-03    1.0119221875e+05
    4.7599412501e-03    1.0119242969e+05
    4.7698118724e-03    1.0119249219e+05
    4.7799283639e-03    1.0119259375e+05
    4.7898092307e-03    1.0119283594e+05
    4.7999490052e-03    1.0119291406e+05
    4.8098433763e-03    1.0119317969e+05
    4.8199887387e-03    1.0119328906e+05
    4.8298793845e-03    1.0119339844e+05
    4.8397742212e-03    1.0119356250e+05
    4.8499382101e-03    1.0119352344e+05
    4.8598512076e-03    1.0119346094e+05
    4.8700142652e-03    1.0119342969e+05
    4.8799188808e-03    1.0119333594e+05
    4.8898295499e-03    1.0119328125e+05
    4.9000014551e-03    1.0119325000e+05
    4.9099205062e-03    1.0119321094e+05
    4.9198376946e-03    1.0119324219e+05
    4.9300086685e-03    1.0119331250e+05
    4.9399267882e-03    1.0119330469e+05
    4.9498472363e-03    1.0119333594e+05
    4.9597662874e-03    1.0119316406e+05
    4.9699372612e-03    1.0119303125e+05
    4.9798530526e-03    1.0119296094e+05
    4.9897693098e-03    1.0119289844e+05
    4.9999440089e-03    1.0119303125e+05
    5.0098625943e-03    1.0119299219e+05
    5.0197807141e-03    1.0119315625e+05
    5.0299516879e-03    1.0119289844e+05
    5.0398716703e-03    1.0119306250e+05
    5.0497935154e-03    1.0119303906e+05
    5.0599672832e-03    1.0119283594e+05
    5.0698858686e-03    1.0119271094e+05
    5.0798035227e-03    1.0119275781e+05
    5.0899782218e-03    1.0119267969e+05
    5.0999000669e-03    1.0119256250e+05
    5.1098209806e-03    1.0119275781e+05
    5.1199952140e-03    1.0119283594e+05
    5.1299156621e-03    1.0119290625e+05
    5.1398365758e-03    1.0119310156e+05
    5.1500103436e-03    1.0119346094e+05
    5.1599275321e-03    1.0119353125e+05
    5.1698451862e-03    1.0119102344e+05
    5.1797763444e-03    1.0119028906e+05
    5.1899603568e-03    1.0119047656e+05
    5.1998859271e-03    1.0119057031e+05
    5.2098096348e-03    1.0119072656e+05
    5.2199843340e-03    1.0119086719e+05
    5.2299113013e-03    1.0119068750e+05
    5.2398541011e-03    1.0119060156e+05
    5.2498024888e-03    1.0119047656e+05
    5.2600046620e-03    1.0119052344e+05
    5.2699502558e-03    1.0119055469e+05
    5.2798935212e-03    1.0119064844e+05
    5.2898339927e-03    1.0119069531e+05
    5.2997735329e-03    1.0119046875e+05
    5.3099663928e-03    1.0118828906e+05
    5.3199077956e-03    1.0118833594e+05
    5.3298594430e-03    1.0118828125e+05
    5.3398120217e-03    1.0118821094e+05
    5.3500188515e-03    1.0118833594e+05
    5.3599718958e-03    1.0118836719e+05
    5.3699291311e-03    1.0118875000e+05
    5.3798835725e-03    1.0118861719e+05
    5.3898366168e-03    1.0118866406e+05
    5.3997882642e-03    1.0118900781e+05
    5.4099960253e-03    1.0118903906e+05
    5.4199551232e-03    1.0118906250e+05
    5.4299156182e-03    1.0118907031e+05
    5.4398747161e-03    1.0118906250e+05
    5.4498324171e-03    1.0118835156e+05
    5.4597938433e-03    1.0118753906e+05
    5.4700165056e-03    1.0118760156e+05
    5.4799816571e-03    1.0118778906e+05
    5.4899454117e-03    1.0118782031e+05
    5.4999077693e-03    1.0118793750e+05
    5.5098724551e-03    1.0118800000e+05
    5.5198445916e-03    1.0118802344e+05
    5.5298190564e-03    1.0118810156e+05
    5.5397925898e-03    1.0118825781e+05
    5.5497684516e-03    1.0118821094e+05
    5.5599999614e-03    1.0118822656e+05
    5.5699720979e-03    1.0118810156e+05
    5.5799423717e-03    1.0118825781e+05
    5.5899117142e-03    1.0118839844e+05
    5.5998810567e-03    1.0118839844e+05
    5.6098597124e-03    1.0118861719e+05
    5.6198467501e-03    1.0118883594e+05
    5.6298328564e-03    1.0118892969e+05
    5.6398184970e-03    1.0118866406e+05
    5.6498069316e-03    1.0118639844e+05
    5.6597958319e-03    1.0118671094e+05
    5.6697833352e-03    1.0118692969e+05
    5.6797689758e-03    1.0118683594e+05
    5.6900102645e-03    1.0118691406e+05
    5.7000033557e-03    1.0118683594e+05
    5.7100011036e-03    1.0118693750e+05
    5.7199974544e-03    1.0118690625e+05
    5.7299924083e-03    1.0118714844e+05
    5.7399873622e-03    1.0118712500e+05
    5.7499809191e-03    1.0118596094e+05
    5.7599740103e-03    1.0118608594e+05
    5.7699661702e-03    1.0118608594e+05
    5.7799699716e-03    1.0118638281e+05
    5.7899849489e-03    1.0118665625e+05
    5.7999966666e-03    1.0118666406e+05
    5.8100055903e-03    1.0118688281e+05
    5.8200131170e-03    1.0118682031e+05
    5.8300225064e-03    1.0118549219e+05
    5.8397855610e-03    1.0118559375e+05
    5.8498070575e-03    1.0118575000e+05
    5.8598271571e-03    1.0118593750e+05
    5.8698458597e-03    1.0118608594e+05
    5.8798743412e-03    1.0118636719e+05
    5.8899112046e-03    1.0118635156e+05
    5.8999448083e-03    1.0118643750e+05
    5.9099770151e-03    1.0118664844e+05
    5.9200073592e-03    1.0118675000e+05
    5.9297895059e-03    1.0118678125e+05
    5.9398375452e-03    1.0118692969e+05
    5.9498841874e-03    1.0118693750e+05
    5.9599294327e-03    1.0118691406e+05
    5.9699760750e-03    1.0118714844e+05
    5.9797749855e-03    1.0118721094e+05
    5.9898328036e-03    1.0118715625e+05
    5.9998887591e-03    1.0118727344e+05
    6.0099442489e-03    1.0118736719e+05
    6.0200025328e-03    1.0118746094e+05
    6.0298098251e-03    1.0118744531e+05
    6.0398741625e-03    1.0118760156e+05
    6.0499375686e-03    1.0118765625e+05
    6.0600014403e-03    1.0118764844e+05
    6.0698119923e-03    1.0118762500e+05
    6.0798823833e-03    1.0118768750e+05
    6.0899513774e-03    1.0118761719e+05
    6.1000189744e-03    1.0118763281e+05
    6.1098271981e-03    1.0118752344e+05
    6.1198980547e-03    1.0118746875e+05
    6.1299777590e-03    1.0118764844e+05
    6.1397985555e-03    1.0118769531e+05
    6.1498773284e-03    1.0118762500e+05
    6.1599551700e-03    1.0118755469e+05
    6.1697778292e-03    1.0118741406e+05
    6.1798584647e-03    1.0118741406e+05
    6.1899386346e-03    1.0118733594e+05
    6.2000183389e-03    1.0118732031e+05
    6.2098475173e-03    1.0118742969e+05
    6.2199383974e-03    1.0118730469e+05
    6.2300269492e-03    1.0118728906e+05
    6.2398561276e-03    1.0118737500e+05
    6.2499428168e-03    1.0118719531e+05
    6.2597738579e-03    1.0118715625e+05
    6.2698652036e-03    1.0118716406e+05
    6.2799560837e-03    1.0118713281e+05
    6.2897866592e-03    1.0118722656e+05
    6.2998849899e-03    1.0118728906e+05
    6.3099907711e-03    1.0118728906e+05
    6.3198343851e-03    1.0118746094e+05
    6.3299355097e-03    1.0118753906e+05
    6.3397767954e-03    1.0118746094e+05
    6.3498802483e-03    1.0118764844e+05
    6.3599934801e-03    1.0118785156e+05
    6.3698487356e-03    1.0118796875e+05
    6.3799628988e-03    1.0118808594e+05
    6.3898176886e-03    1.0118816406e+05
    6.3999379054e-03    1.0118835156e+05
    6.4098024741e-03    1.0118834375e+05
    6.4199245535e-03    1.0118838281e+05
    6.4297853969e-03    1.0118849219e+05
    6.4399051480e-03    1.0118858594e+05
    6.4497715794e-03    1.0118859375e+05
    6.4599006437e-03    1.0118863281e+05
    6.4700278454e-03    1.0118871875e+05
    6.4798952080e-03    1.0118871094e+05
    6.4900228754e-03    1.0118878125e+05
    6.4999000169e-03    1.0118875781e+05
    6.5097799525e-03    1.0118880469e+05
    6.5199178644e-03    1.0118646094e+05
    6.5297950059e-03    1.0118603906e+05
    6.5399329178e-03    1.0118596094e+05
    6.5498170443e-03    1.0118608594e+05
    6.5599614754e-03    1.0118613281e+05
    6.5698446706e-03    1.0118622656e+05
    6.5799877048e-03    1.0118628125e+05
    6.5898750909e-03    1.0118634375e+05
    6.6000316292e-03    1.0118643750e+05
    6.6099246033e-03    1.0118571094e+05
    6.6198161803e-03    1.0118453906e+05
    6.6299661994e-03    1.0118464844e+05
    6.6398605704e-03    1.0118481250e+05
    6.6500296816e-03    1.0118497656e+05
    6.6599422134e-03    1.0118503906e+05
    6.6698533483e-03    1.0118503125e+05
    6.6800247878e-03    1.0118516406e+05
    6.6899349913e-03    1.0118521875e+05
    6.6998489201e-03    1.0118538281e+05
    6.7100231536e-03    1.0118550781e+05
    6.7199366167e-03    1.0118561719e+05
    6.7298500799e-03    1.0118585156e+05
    6.7400308326e-03    1.0118584375e+05
    6.7499484867e-03    1.0118578906e+05
    6.7598638125e-03    1.0118591406e+05
    6.7697791383e-03    1.0118600000e+05
    6.7799547687e-03    1.0118597656e+05
    6.7898812704e-03    1.0118603906e+05
    6.7998110317e-03    1.0118594531e+05
    6.8100001663e-03    1.0118606250e+05
    6.8199275993e-03    1.0118599219e+05
    6.8298587576e-03    1.0118614844e+05
    6.8398006260e-03    1.0118631250e+05
    6.8500032648e-03    1.0118631250e+05
    6.8599418737e-03    1.0118635156e+05
    6.8698795512e-03    1.0118633594e+05
    6.8798181601e-03    1.0118628906e+05
    6.8900249898e-03    1.0118622656e+05
    6.8999710493e-03    1.0118621875e+05
    6.9099157117e-03    1.0118636719e+05
    6.9198599085e-03    1.0118639844e+05
    6.9298110902e-03    1.0118643750e+05
    6.9397734478e-03    1.0118428906e+05
    6.9499975070e-03    1.0118414844e+05
    6.9599570706e-03    1.0118431250e+05
    6.9699161686e-03    1.0118440625e+05
    6.9798757322e-03    1.0118453906e+05
    6.9898422807e-03    1.0118466406e+05
    6.9998088293e-03    1.0118483594e+05
    7.0097735152e-03    1.0118471875e+05
    7.0199994370e-03    1.0118508594e+05
    7.0299659856e-03    1.0118521094e+05
    7.0399460383e-03    1.0118516406e+05
    7.0499293506e-03    1.0118524219e+05
    7.0599094033e-03    1.0118527344e+05
    7.0698894560e-03    1.0118546094e+05
    7.0798681118e-03    1.0118547656e+05
    7.0898551494e-03    1.0118546094e+05
    7.0998449810e-03    1.0118546094e+05
    7.1098329499e-03    1.0118543750e+05
    7.1198199876e-03    1.0118553125e+05
    7.1298098192e-03    1.0118553906e+05
    7.1398103610e-03    1.0118549219e+05
    7.1498113684e-03    1.0118547656e+05
    7.1598095819e-03    1.0118553906e+05
    7.1698068641e-03    1.0118577344e+05
    7.1798046120e-03    1.0118574219e+05
    7.1898093447e-03    1.0118591406e+05
    7.1998201311e-03    1.0118602344e+05
    7.2098295204e-03    1.0118592969e+05
    7.2198370472e-03    1.0118617969e+05
    7.2298445739e-03    1.0118491406e+05
    7.2398539633e-03    1.0118350781e+05
    7.2498675436e-03    1.0118360156e+05
    7.2598811239e-03    1.0118378125e+05
    7.2698937729e-03    1.0118396094e+05
    7.2799068876e-03    1.0118391406e+05
    7.2899269871e-03    1.0118399219e+05
    7.2999475524e-03    1.0118408594e+05
    7.3099662550e-03    1.0118402344e+05
    7.3199840263e-03    1.0118385156e+05
    7.3300017975e-03    1.0118371094e+05
    7.3400232941e-03    1.0118381250e+05
    7.3497802950e-03    1.0118384375e+05
    7.3597994633e-03    1.0118275781e+05
    7.3698177002e-03    1.0118153125e+05
    7.3798364028e-03    1.0118172656e+05
    7.3898667470e-03    1.0118192969e+05
    7.3999091983e-03    1.0118024219e+05
    7.4099511839e-03    1.0117983594e+05
    7.4199917726e-03    1.0117985156e+05
    7.4300323613e-03    1.0117989844e+05
    7.4398084544e-03    1.0118005469e+05
    7.4498495087e-03    1.0118031250e+05
    7.4598891661e-03    1.0118036719e+05
    7.4699274264e-03    1.0118046875e+05
    7.4799647555e-03    1.0118050781e+05
    7.4900048785e-03    1.0118066406e+05
    7.4997884221e-03    1.0118077344e+05
    7.5098392554e-03    1.0118078125e+05
    7.5198882259e-03    1.0118086719e+05
    7.5299362652e-03    1.0118078125e+05
    7.5399843045e-03    1.0118100781e+05
    7.5500388630e-03    1.0118113281e+05
    7.5598363765e-03    1.0118100000e+05
    7.5698983856e-03    1.0118116406e+05
    7.5799599290e-03    1.0118122656e+05
    7.5900210068e-03    1.0118128906e+05
    7.5998180546e-03    1.0118139844e+05
    7.6098786667e-03    1.0118147656e+05
    7.6199374162e-03    1.0118147656e+05
    7.6299943030e-03    1.0118153906e+05
    7.6397862285e-03    1.0118166406e+05
    7.6498440467e-03    1.0118200781e+05
    7.6599111781e-03    1.0118228125e+05
    7.6699862257e-03    1.0118242969e+05
    7.6797963120e-03    1.0118259375e+05
    7.6898708940e-03    1.0118260156e+05
    7.6999459416e-03    1.0118258594e+05
    7.7100228518e-03    1.0118266406e+05
    7.7198334038e-03    1.0118258594e+05
    7.7299075201e-03    1.0118289844e+05
    7.7399797738e-03    1.0118287500e+05
    7.7497870661e-03    1.0118313281e+05
    7.7598625794e-03    1.0118308594e+05
    7.7699464746e-03    1.0118338281e+05
    7.7800313011e-03    1.0118340625e+05
    7.7898497693e-03    1.0118350000e+05
    7.7999327332e-03    1.0118358594e+05
    7.8100156970e-03    1.0118353906e+05
    7.8198341653e-03    1.0118358594e+05
    7.8299194574e-03    1.0118366406e+05
    7.8400038183e-03    1.0118384375e+05
    7.8498236835e-03    1.0118371094e+05
    7.8599099070e-03    1.0118383594e+05
    7.8699970618e-03    1.0118393750e+05
    7.8798169270e-03    1.0118393750e+05
    7.8899012879e-03    1.0118383594e+05
    7.8999847174e-03    1.0118399219e+05
    7.9098027200e-03    1.0118371875e+05
    7.9198889434e-03    1.0118387500e+05
    7.9299779609e-03    1.0118375000e+05
    7.9398006201e-03    1.0118367969e+05
    7.9498887062e-03    1.0118360156e+05
    7.9599767923e-03    1.0118359375e+05
    7.9698003829e-03    1.0118282031e+05
    7.9798921943e-03    1.0117860156e+05
    7.9899840057e-03    1.0117646094e+05
    7.9998085275e-03    1.0117668750e+05
    8.0098984763e-03    1.0117678906e+05
    8.0199874938e-03    1.0117699219e+05
    8.0298129469e-03    1.0117705469e+05
    8.0399038270e-03    1.0117708594e+05
    8.0499947071e-03    1.0117732031e+05
    8.0598192289e-03    1.0117753906e+05
    8.0699091777e-03    1.0117769531e+05
    8.0800009891e-03    1.0117791406e+05
    8.0898264423e-03    1.0117797656e+05
    8.0999163911e-03    1.0117815625e+05
    8.1100044772e-03    1.0117821094e+05
    8.1198262051e-03    1.0117819531e+05
    8.1299133599e-03    1.0117803125e+05
    8.1400079653e-03    1.0117563281e+05
    8.1498436630e-03    1.0117546094e+05
    8.1599457189e-03    1.0117562500e+05
    8.1697823480e-03    1.0117557031e+05
    8.1798844039e-03    1.0117566406e+05
    8.1899873912e-03    1.0117561719e+05
    8.1998230889e-03    1.0117572656e+05
    8.2099232823e-03    1.0117585156e+05
    8.2200216129e-03    1.0117584375e+05
    8.2298526540e-03    1.0117566406e+05
    8.2399491221e-03    1.0117566406e+05
    8.2497876137e-03    1.0117574219e+05
    8.2599017769e-03    1.0117586719e+05
    8.2700168714e-03    1.0117616406e+05
    8.2798646763e-03    1.0117617969e+05
    8.2899779081e-03    1.0117624219e+05
    8.2998266444e-03    1.0117377344e+05
    8.3099417388e-03    1.0117213281e+05
    8.3197886124e-03    1.0117234375e+05
    8.3298999816e-03    1.0117242969e+05
    8.3400104195e-03    1.0117246094e+05
    8.3498544991e-03    1.0117271094e+05
    8.3599677309e-03    1.0117288281e+05
    8.3698211238e-03    1.0117281250e+05
    8.3799399436e-03    1.0117077344e+05
    8.3897905424e-03    1.0117010156e+05
    8.3999074996e-03    1.0117043750e+05
    8.4097571671e-03    1.0117064844e+05
    8.4198778495e-03    1.0117078906e+05
    8.4300022572e-03    1.0117096094e+05
    8.4398612380e-03    1.0117121094e+05
    8.4499865770e-03    1.0117153906e+05
    8.4598455578e-03    1.0117187500e+05
    8.4699708968e-03    1.0117202344e+05
    8.4798289463e-03    1.0117234375e+05
    8.4899514914e-03    1.0117250781e+05
    8.4998058155e-03    1.0117271094e+05
    8.5099255666e-03    1.0117272656e+05
    8.5197789595e-03    1.0117107031e+05
    8.5299005732e-03    1.0117127344e+05
    8.5397586226e-03    1.0117133594e+05
    8.5498811677e-03    1.0117163281e+05
    8.5600037128e-03    1.0117182031e+05
    8.5698598996e-03    1.0117210156e+05
    8.5799815133e-03    1.0117221094e+05
    8.5898377001e-03    1.0117247656e+05
    8.5999593139e-03    1.0117252344e+05
    8.6098127067e-03    1.0117282031e+05
    8.6199305952e-03    1.0117308594e+05
    8.6297830567e-03    1.0117325781e+05
    8.6399018764e-03    1.0117346875e+05
    8.6497571319e-03    1.0117347656e+05
    8.6598796770e-03    1.0117378125e+05
    8.6700022221e-03    1.0117391406e+05
    8.6798574775e-03    1.0117428125e+05
    8.6899781600e-03    1.0117452344e+05
    8.6998334154e-03    1.0117467969e+05
    8.7099531665e-03    1.0117478125e+05
    8.7198056281e-03    1.0117502344e+05
    8.7299225852e-03    1.0117516406e+05
    8.7397713214e-03    1.0117524219e+05
    8.7498864159e-03    1.0117521094e+05
    8.7600024417e-03    1.0117537500e+05
    8.7698595598e-03    1.0117546094e+05
    8.7799932808e-03    1.0117547656e+05
    8.7898606434e-03    1.0117530469e+05
    8.7999943644e-03    1.0117539844e+05
    8.8098598644e-03    1.0117543750e+05
    8.8199907914e-03    1.0117539844e+05
    8.8298553601e-03    1.0117547656e+05
    8.8399853557e-03    1.0117544531e+05
    8.8498471305e-03    1.0117553125e+05
    8.8599743322e-03    1.0117566406e+05
    8.8698342443e-03    1.0117566406e+05
    8.8799605146e-03    1.0117585156e+05
    8.8898222893e-03    1.0117585156e+05
    8.8999569416e-03    1.0117591406e+05
    8.9098270983e-03    1.0117589844e+05
    8.9199636132e-03    1.0117602344e+05
    8.9298328385e-03    1.0117492969e+05
    8.9399674907e-03    1.0117496094e+05
    8.9498357847e-03    1.0117508594e+05
    8.9599685743e-03    1.0117514844e+05
    8.9698340744e-03    1.0117530469e+05
    8.9799640700e-03    1.0117539844e+05
    8.9898267761e-03    1.0117533594e+05
    8.9999549091e-03    1.0117539844e+05
    9.0098166838e-03    1.0117552344e+05
    9.0199559927e-03    1.0117565625e+05
    9.0298429132e-03    1.0117589844e+05
    9.0397279710e-03    1.0117586719e+05
    9.0498784557e-03    1.0117418750e+05
    9.0597616509e-03    1.0117283594e+05
    9.0699112043e-03    1.0117305469e+05
    9.0797916055e-03    1.0117297656e+05
    9.0899448842e-03    1.0117332031e+05
    9.0998448431e-03    1.0117321875e+05
    9.1097475961e-03    1.0117343750e+05
    9.1199167073e-03    1.0117366406e+05
    9.1298166662e-03    1.0117364844e+05
    9.1399848461e-03    1.0117388281e+05
    9.1498838738e-03    1.0117402344e+05
    9.1597819701e-03    1.0117402344e+05
    9.1699464247e-03    1.0117181250e+05
    9.1798426583e-03    1.0117133594e+05
    9.1897379607e-03    1.0117153906e+05
    9.1999005526e-03    1.0117159375e+05
    9.2097949237e-03    1.0117189844e+05
    9.2199575156e-03    1.0117206250e+05
    9.2298500240e-03    1.0117228125e+05
    9.2397416010e-03    1.0117228906e+05
    9.2499004677e-03    1.0117221094e+05
    9.2597929761e-03    1.0117240625e+05
    9.2699527740e-03    1.0117235156e+05
    9.2798555270e-03    1.0117249219e+05
    9.2897666618e-03    1.0117266406e+05
    9.2999450862e-03    1.0117284375e+05
    9.3098543584e-03    1.0117303906e+05
    9.3197626993e-03    1.0117314844e+05
    9.3299401924e-03    1.0117347656e+05
    9.3398503959e-03    1.0117352344e+05
    9.3497615308e-03    1.0117388281e+05
    9.3599408865e-03    1.0117399219e+05
    9.3698529527e-03    1.0117414844e+05
    9.3797640875e-03    1.0117183594e+05
    9.3899425119e-03    1.0117096875e+05
    9.3998564407e-03    1.0117121094e+05
    9.4097703695e-03    1.0117130469e+05
    9.4199515879e-03    1.0117141406e+05
    9.4298673794e-03    1.0117165625e+05
    9.4398409128e-03    1.0117180469e+05
    9.4498759136e-03    1.0117188281e+05
    9.4597106799e-03    1.0117202344e+05
    9.4698537141e-03    1.0117210156e+05
    9.4797275960e-03    1.0117228906e+05
    9.4898929819e-03    1.0117228906e+05
    9.4998106360e-03    1.0117232031e+05
    9.5097301528e-03    1.0117150781e+05
    9.5199355856e-03    1.0116964844e+05
    9.5299351960e-03    1.0116975781e+05
    9.5399571583e-03    1.0116977344e+05
    9.5497369766e-03    1.0116967969e+05
    9.5597924665e-03    1.0116966406e+05
    9.5698768273e-03    1.0116978906e+05
    9.5796957612e-03    1.0116972656e+05
    9.5898220316e-03    1.0116978125e+05
    9.5998514444e-03    1.0117000000e+05
    9.6099553630e-03    1.0117010156e+05
    9.6197985113e-03    1.0117016406e+05
    9.6299480647e-03    1.0117028906e+05
    9.6398126334e-03    1.0117041406e+05
    9.6497107297e-03    1.0117064844e+05
    9.6598910168e-03    1.0117093750e+05
    9.6697807312e-03    1.0117110156e+05
    9.6799600869e-03    1.0117127344e+05
    9.6898702905e-03    1.0117137500e+05
    9.6997842193e-03    1.0117000000e+05
    9.7097568214e-03    1.0116816406e+05
    9.7198113799e-03    1.0116810156e+05
    9.7298854962e-03    1.0116811719e+05
    9.7396755591e-03    1.0116817969e+05
    9.7499042749e-03    1.0116831250e+05
    9.7598861903e-03    1.0116833594e+05
    9.7698858008e-03    1.0116846094e+05
    9.7799031064e-03    1.0116852344e+05
    9.7899148241e-03    1.0116871094e+05
    9.7999451682e-03    1.0116874219e+05
    9.8096681759e-03    1.0116885156e+05
    9.8196910694e-03    1.0116708594e+05
    9.8297689110e-03    1.0116628906e+05
    9.8398821428e-03    1.0116656250e+05
    9.8496880382e-03    1.0116659375e+05
    9.8598413169e-03    1.0116674219e+05
    9.8696900532e-03    1.0116686719e+05
    9.8798451945e-03    1.0116697656e+05
    9.8896939307e-03    1.0116718750e+05
    9.8998453468e-03    1.0116744531e+05
    9.9097816274e-03    1.0116762500e+05
    9.9198948592e-03    1.0116762500e+05
    9.9297640845e-03    1.0116772656e+05
    9.9397599697e-03    1.0116671094e+05
    9.9496673793e-03    1.0116560156e+05
    9.9598588422e-03    1.0116580469e+05
    9.9696191028e-03    1.0116596875e+05
    9.9799381569e-03    1.0116621875e+05
    9.9897040054e-03    1.0116644531e+05
    9.9996114150e-03    1.0116671875e+05
    1.0009663180e-02    1.0116689844e+05
    1.0019875132e-02    1.0116690625e+05
    1.0029868223e-02    1.0116516406e+05
    1.0039623827e-02    1.0116483594e+05
    1.0049918666e-02    1.0116521875e+05
    1.0059552267e-02    1.0116541406e+05
    1.0069717653e-02    1.0116571875e+05
    1.0079599917e-02    1.0116603906e+05
    1.0089599527e-02    1.0116627344e+05
    1.0099708103e-02    1.0116641406e+05
    1.0109927505e-02    1.0116660156e+05
    1.0119832121e-02    1.0116672656e+05
    1.0129846632e-02    1.0116696875e+05
    1.0139528662e-02    1.0116706250e+05
    1.0149754584e-02    1.0116721094e+05
    1.0159632191e-02    1.0116732031e+05
    1.0169598274e-02    1.0116739844e+05
    1.0179632343e-02    1.0116746875e+05
    1.0189710185e-02    1.0116767969e+05
    1.0199812241e-02    1.0116782031e+05
    1.0209501721e-02    1.0116791406e+05
    1.0219700634e-02    1.0116803906e+05
    1.0229936801e-02    1.0116816406e+05
    1.0239752010e-02    1.0116827344e+05
    1.0249616578e-02    1.0116827344e+05
    1.0259539820e-02    1.0116837500e+05
    1.0269497521e-02    1.0116841406e+05
    1.0279503651e-02    1.0116843750e+05
    1.0289550759e-02    1.0116846094e+05
    1.0299644433e-02    1.0116714844e+05
    1.0309831239e-02    1.0116485156e+05
    1.0319490917e-02    1.0116481250e+05
    1.0329769924e-02    1.0116496094e+05
    1.0339517146e-02    1.0116508594e+05
    1.0349893011e-02    1.0116534375e+05
    1.0359713808e-02    1.0116544531e+05
    1.0369672440e-02    1.0116562500e+05
    1.0379598476e-02    1.0116582031e+05
    1.0389578529e-02    1.0116602344e+05
    1.0399638675e-02    1.0116619531e+05
    1.0409713723e-02    1.0116639844e+05
    1.0419826023e-02    1.0116650000e+05
    1.0429448448e-02    1.0116665625e+05
    1.0439598002e-02    1.0116678906e+05
    1.0449793190e-02    1.0116699219e+05
    1.0459565558e-02    1.0116711719e+05
    1.0469897650e-02    1.0116700000e+05
    1.0479677469e-02    1.0116539844e+05
    1.0489543900e-02    1.0116483594e+05
    1.0499424301e-02    1.0116496094e+05
    1.0509899817e-02    1.0116514844e+05
    1.0519861244e-02    1.0116516406e+05
    1.0529811494e-02    1.0116522656e+05
    1.0539748706e-02    1.0116544531e+05
    1.0549765080e-02    1.0116557031e+05
    1.0559812188e-02    1.0116575781e+05
    1.0569874197e-02    1.0116600781e+05
    1.0579445399e-02    1.0116622656e+05
    1.0589604266e-02    1.0116637500e+05
    1.0599760339e-02    1.0116664844e+05
    1.0609417222e-02    1.0116685156e+05
    1.0619620793e-02    1.0116708594e+05
    1.0629891418e-02    1.0116539844e+05
    1.0639600456e-02    1.0116386719e+05
    1.0649902746e-02    1.0116403906e+05
    1.0659638792e-02    1.0116419531e+05
    1.0669377632e-02    1.0116438281e+05
    1.0679664090e-02    1.0116441406e+05
    1.0689876974e-02    1.0116339844e+05
    1.0699907318e-02    1.0116239844e+05
    1.0709670372e-02    1.0116233594e+05
    1.0719577782e-02    1.0116222656e+05
    1.0729570873e-02    1.0116242969e+05
    1.0739614256e-02    1.0116242969e+05
    1.0749663226e-02    1.0116246094e+05
    1.0759676807e-02    1.0116239844e+05
    1.0769613087e-02    1.0116253906e+05
    1.0779793374e-02    1.0116264844e+05
    1.0789765045e-02    1.0116280469e+05
    1.0799803771e-02    1.0116284375e+05
    1.0809795000e-02    1.0116266406e+05
    1.0819878429e-02    1.0116121094e+05
    1.0829837993e-02    1.0116112500e+05
    1.0839861818e-02    1.0116093750e+05
    1.0849860497e-02    1.0116096875e+05
    1.0859872214e-02    1.0116096094e+05
    1.0869849473e-02    1.0116112500e+05
    1.0879830457e-02    1.0116108594e+05
    1.0889773257e-02    1.0116113281e+05
    1.0899849236e-02    1.0116116406e+05
    1.0909875855e-02    1.0116152344e+05
    1.0919865221e-02    1.0116157031e+05
    1.0929746553e-02    1.0116184375e+05
    1.0939754546e-02    1.0116196094e+05
    1.0949848220e-02    1.0116216406e+05
    1.0959827341e-02    1.0116244531e+05
    1.0969798081e-02    1.0116253906e+05
    1.0979788378e-02    1.0116256250e+05
    1.0989814065e-02    1.0116261719e+05
    1.0999812745e-02    1.0116284375e+05
    1.1009785347e-02    1.0116308594e+05
    1.1019896716e-02    1.0116312500e+05
    1.1029690504e-02    1.0116321875e+05
    1.1039810255e-02    1.0116339844e+05
    1.1049776338e-02    1.0116355469e+05
    1.1059829965e-02    1.0116358594e+05
    1.1069700122e-02    1.0116369531e+05
    1.1079863645e-02    1.0116382031e+05
    1.1089838110e-02    1.0116391406e+05
    1.1099856347e-02    1.0116375000e+05
    1.1109906249e-02    1.0116230469e+05
    1.1119754985e-02    1.0116189844e+05
    1.1129889637e-02    1.0116092969e+05
    1.1139790528e-02    1.0116089844e+05
    1.1149743572e-02    1.0116071094e+05
    1.1159709655e-02    1.0116002344e+05
    1.1169709265e-02    1.0116037500e+05
    1.1179737747e-02    1.0116039844e+05
    1.1189779267e-02    1.0116027344e+05
    1.1199870147e-02    1.0116049219e+05
    1.1209697463e-02    1.0116050000e+05
    1.1219820939e-02    1.0116046875e+05
    1.1229692027e-02    1.0116066406e+05
    1.1239822954e-02    1.0116093750e+05
    1.1249744333e-02    1.0116099219e+05
    1.1259665713e-02    1.0116103125e+05
    1.1269869283e-02    1.0116099219e+05
    1.1279819533e-02    1.0116103906e+05
    1.1289818212e-02    1.0115958594e+05
    1.1299833655e-02    1.0115952344e+05
    1.1309842579e-02    1.0115964844e+05
    1.1319887824e-02    1.0115946875e+05
    1.1329699308e-02    1.0115803906e+05
    1.1339769699e-02    1.0115833594e+05
    1.1349845678e-02    1.0115860156e+05
    1.1359699070e-02    1.0115909375e+05
    1.1369816959e-02    1.0115916406e+05
    1.1379685253e-02    1.0115944531e+05
    1.1389832012e-02    1.0115962500e+05
    1.1399754323e-02    1.0115978906e+05
    1.1409671977e-02    1.0116008594e+05
    1.1419859715e-02    1.0116032031e+05
    1.1429818347e-02    1.0116060156e+05
    1.1439785361e-02    1.0116071094e+05
    1.1449745856e-02    1.0116091406e+05
    1.1459734291e-02    1.0116114844e+05
    1.1469749734e-02    1.0116128906e+05
    1.1479755864e-02    1.0116141406e+05
    1.1489767581e-02    1.0116141406e+05
    1.1499803513e-02    1.0116153125e+05
    1.1509847827e-02    1.0116181250e+05
    1.1519876309e-02    1.0116196094e+05
    1.1529672891e-02    1.0116218750e+05
    1.1539758183e-02    1.0116228125e+05
    1.1549835093e-02    1.0116233594e+05
    1.1559660546e-02    1.0116258594e+05
    1.1569766328e-02    1.0116275781e+05
    1.1579887010e-02    1.0116296094e+05
    1.1589733884e-02    1.0116303125e+05
    1.1599852704e-02    1.0116325781e+05
    1.1609739624e-02    1.0116328906e+05
    1.1619884521e-02    1.0116353906e+05
    1.1629772373e-02    1.0116381250e+05
    1.1639676988e-02    1.0116394531e+05
    1.1649857275e-02    1.0116387500e+05
    1.1659770273e-02    1.0116386719e+05
    1.1669682339e-02    1.0116384375e+05
    1.1679875664e-02    1.0116394531e+05
    1.1689813808e-02    1.0116397656e+05
    1.1699751951e-02    1.0116392969e+05
    1.1709700339e-02    1.0116403906e+05
    1.1719663627e-02    1.0116394531e+05
    1.1729628779e-02    1.0116408594e+05
    1.1739854701e-02    1.0116390625e+05
    1.1749835685e-02    1.0116421094e+05
    1.1759828776e-02    1.0116421094e+05
    1.1769821867e-02    1.0116431250e+05
    1.1779829860e-02    1.0116439844e+05
    1.1789849028e-02    1.0116458594e+05
    1.1799873784e-02    1.0116461719e+05
    1.1809631251e-02    1.0116457031e+05
    1.1819652282e-02    1.0116478906e+05
    1.1829683557e-02    1.0116460156e+05
    1.1839716695e-02    1.0116458594e+05
    1.1849748902e-02    1.0116463281e+05
    1.1859790422e-02    1.0116464844e+05
    1.1869841255e-02    1.0116464844e+05
    1.1879635043e-02    1.0116471094e+05
    1.1889703572e-02    1.0116456250e+05
    1.1899780482e-02    1.0116453906e+05
    1.1909860186e-02    1.0116453906e+05
    1.1919670738e-02    1.0116444531e+05
    1.1929747649e-02    1.0116440625e+05
    1.1939833872e-02    1.0116450000e+05
    1.1949659325e-02    1.0116465625e+05
    1.1959755793e-02    1.0116468750e+05
    1.1969855055e-02    1.0116480469e+05
    1.1979690753e-02    1.0116490625e+05
    1.1989791878e-02    1.0116500781e+05
    1.1999626644e-02    1.0116503125e+05
    1.2009724975e-02    1.0116507031e+05
    1.2019823305e-02    1.0116358594e+05
    1.2029655278e-02    1.0116310156e+05
    1.2039752677e-02    1.0116352344e+05
    1.2049850076e-02    1.0116356250e+05
    1.2059682049e-02    1.0116385156e+05
    1.2069779448e-02    1.0116383594e+05
    1.2079614215e-02    1.0116407031e+05
    1.2089716271e-02    1.0116396875e+05
    1.2099821121e-02    1.0116403125e+05
    1.2109661475e-02    1.0116413281e+05
    1.2119767256e-02    1.0116421875e+05
    1.2129607610e-02    1.0116443750e+05
    1.2139714323e-02    1.0116466406e+05
    1.2149820104e-02    1.0116474219e+05
    1.2159659527e-02    1.0116466406e+05
    1.2169766240e-02    1.0116467969e+05
    1.2179607525e-02    1.0116487500e+05
    1.2189716101e-02    1.0116494531e+05
    1.2199826539e-02    1.0116503125e+05
    1.2209671549e-02    1.0116514844e+05
    1.2219781987e-02    1.0116347656e+05
    1.2229626998e-02    1.0116336719e+05
    1.2239736505e-02    1.0116339844e+05
    1.2249846011e-02    1.0116334375e+05
    1.2259690091e-02    1.0116341406e+05
    1.2269799598e-02    1.0116368750e+05
    1.2279645540e-02    1.0116271094e+05
    1.2289760634e-02    1.0116235156e+05
    1.2299612164e-02    1.0116239844e+05
    1.2309730053e-02    1.0116246094e+05
    1.2319847941e-02    1.0116281250e+05
    1.2329700403e-02    1.0116300000e+05
    1.2339818291e-02    1.0116313281e+05
    1.2349671684e-02    1.0116347656e+05
    1.2359790504e-02    1.0116375000e+05
    1.2369642034e-02    1.0116400781e+05
    1.2379760854e-02    1.0116416406e+05
    1.2389612384e-02    1.0116435156e+05
    1.2399731204e-02    1.0116474219e+05
    1.2409850024e-02    1.0116503906e+05
    1.2419705279e-02    1.0116517969e+05
    1.2429828756e-02    1.0116546875e+05
    1.2439687736e-02    1.0116553125e+05
    1.2449815869e-02    1.0116503906e+05
    1.2459683232e-02    1.0116338281e+05
    1.2469822541e-02    1.0116347656e+05
    1.2479696423e-02    1.0116339844e+05
    1.2489835732e-02    1.0116343750e+05
    1.2499705888e-02    1.0116359375e+05
    1.2509842403e-02    1.0116358594e+05
    1.2519711629e-02    1.0116346094e+05
    1.2529846281e-02    1.0116331250e+05
    1.2539717369e-02    1.0116328125e+05
    1.2549594976e-02    1.0116355469e+05
    1.2559744529e-02    1.0116346875e+05
    1.2569628656e-02    1.0116352344e+05
    1.2579778209e-02    1.0116356250e+05
    1.2589660473e-02    1.0116378125e+05
    1.2599810027e-02    1.0116375000e+05
    1.2609691359e-02    1.0116406250e+05
    1.2619840913e-02    1.0116413281e+05
    1.2629725039e-02    1.0116433594e+05
    1.2639609165e-02    1.0116293750e+05
    1.2649760582e-02    1.0116281250e+05
    1.2659645639e-02    1.0116316406e+05
    1.2669797987e-02    1.0116328906e+05
    1.2679683976e-02    1.0116346094e+05
    1.2689835392e-02    1.0116360156e+05
    1.2699719518e-02    1.0116360156e+05
    1.2709602714e-02    1.0116360156e+05
    1.2719752267e-02    1.0116378125e+05
    1.2729634531e-02    1.0116385156e+05
    1.2739790604e-02    1.0116390625e+05
    1.2749684043e-02    1.0116403906e+05
    1.2759843841e-02    1.0116397656e+05
    1.2769736350e-02    1.0116205469e+05
    1.2779626995e-02    1.0116205469e+05
    1.2789784931e-02    1.0116199219e+05
    1.2799679302e-02    1.0116203906e+05
    1.2809846550e-02    1.0116222656e+05
    1.2819749303e-02    1.0116222656e+05
    1.2829650193e-02    1.0116225781e+05
    1.2839817442e-02    1.0116052344e+05
    1.2849717401e-02    1.0116050781e+05
    1.2859615497e-02    1.0116043750e+05
    1.2869781815e-02    1.0116037500e+05
    1.2879682705e-02    1.0116042969e+05
    1.2889591046e-02    1.0116043750e+05
    1.2899767607e-02    1.0116066406e+05
    1.2909675017e-02    1.0116067969e+05
    1.2919582427e-02    1.0116071094e+05
    1.2929756194e-02    1.0116091406e+05
    1.2939663604e-02    1.0116084375e+05
    1.2949576601e-02    1.0116100000e+05
    1.2959763408e-02    1.0116096875e+05
    1.2969686650e-02    1.0116099219e+05
    1.2979609892e-02    1.0116113281e+05
    1.2989800423e-02    1.0116108594e+05
    1.2999719940e-02    1.0116112500e+05
    1.3009638526e-02    1.0116134375e+05
    1.3019822538e-02    1.0116124219e+05
    1.3029741123e-02    1.0116125000e+05
    1.3039670885e-02    1.0116128906e+05
    1.3049608096e-02    1.0116146875e+05
    1.3059810735e-02    1.0116156250e+05
    1.3069742359e-02    1.0116164844e+05
    1.3079670258e-02    1.0116186719e+05
    1.3089603744e-02    1.0116199219e+05
    1.3099819422e-02    1.0116215625e+05
    1.3109778985e-02    1.0116215625e+05
    1.3119738549e-02    1.0116228906e+05
    1.3129696250e-02    1.0116221094e+05
    1.3139655814e-02    1.0116242969e+05
    1.3149623759e-02    1.0116250781e+05
    1.3159593567e-02    1.0116263281e+05
    1.3169828802e-02    1.0116255469e+05
    1.3179793023e-02    1.0116269531e+05
    1.3189755380e-02    1.0116275000e+05
    1.3199714944e-02    1.0116292969e+05
    1.3209686615e-02    1.0116296094e+05
    1.3219674118e-02    1.0116308594e+05
    1.3229670003e-02    1.0116333594e+05
    1.3239664026e-02    1.0116349219e+05
    1.3249654323e-02    1.0116347656e+05
    1.3259643689e-02    1.0116353906e+05
    1.3269632123e-02    1.0116375781e+05
    1.3279630803e-02    1.0116366406e+05
    1.3289641589e-02    1.0116171094e+05
    1.3299657963e-02    1.0116142969e+05
    1.3309674338e-02    1.0116158594e+05
    1.3319689780e-02    1.0116163281e+05
    1.3329708949e-02    1.0116159375e+05
    1.3339729048e-02    1.0116160156e+05
    1.3349748217e-02    1.0116165625e+05
    1.3359765522e-02    1.0116150000e+05
    1.3369782828e-02    1.0116172656e+05
    1.3379797339e-02    1.0116189844e+05
    1.3389811851e-02    1.0116177344e+05
    1.3399822637e-02    1.0116171094e+05
    1.3409567066e-02    1.0116178125e+05
    1.3419602066e-02    1.0116197656e+05
    1.3429655693e-02    1.0116206250e+05
    1.3439708389e-02    1.0116224219e+05
    1.3449759223e-02    1.0116242969e+05
    1.3459808193e-02    1.0116260156e+05
    1.3469585218e-02    1.0116272656e+05
    1.3479642570e-02    1.0116290625e+05
    1.3489705510e-02    1.0116310156e+05
    1.3499767520e-02    1.0116307031e+05
    1.3509555720e-02    1.0116316406e+05
    1.3519619592e-02    1.0116315625e+05
    1.3529689983e-02    1.0116341406e+05
    1.3539763168e-02    1.0116341406e+05
    1.3549564406e-02    1.0116350781e+05
    1.3559641317e-02    1.0116375000e+05
    1.3569726609e-02    1.0116382031e+05
    1.3579811901e-02    1.0116366406e+05
    1.3589622453e-02    1.0116135156e+05
    1.3599704020e-02    1.0116140625e+05
    1.3609782793e-02    1.0116155469e+05
    1.3619600795e-02    1.0116172656e+05
    1.3629699126e-02    1.0116189844e+05
    1.3639796525e-02    1.0116178906e+05
    1.3649619184e-02    1.0116007031e+05
    1.3659714721e-02    1.0116027344e+05
    1.3669541106e-02    1.0116025781e+05
    1.3679642230e-02    1.0116028906e+05
    1.3689742424e-02    1.0116047656e+05
    1.3699566945e-02    1.0116057031e+05
    1.3709666207e-02    1.0116053906e+05
    1.3719778508e-02    1.0116072656e+05
    1.3729627244e-02    1.0116075000e+05
    1.3739747927e-02    1.0116094531e+05
    1.3749594800e-02    1.0116097656e+05
    1.3759713620e-02    1.0116118750e+05
    1.3769567944e-02    1.0116130469e+05
    1.3779703528e-02    1.0116131250e+05
    1.3789564371e-02    1.0116128906e+05
    1.3799699955e-02    1.0116146875e+05
    1.3809560798e-02    1.0116149219e+05
    1.3819695450e-02    1.0116146875e+05
    1.3829553500e-02    1.0116150781e+05
    1.3839683495e-02    1.0116159375e+05
    1.3849535026e-02    1.0116146875e+05
    1.3859677128e-02    1.0116146875e+05
    1.3869562186e-02    1.0116171094e+05
    1.3879726641e-02    1.0116166406e+05
    1.3889615424e-02    1.0116186719e+05
    1.3899778947e-02    1.0116203906e+05
    1.3909667730e-02    1.0116213281e+05
    1.3919555582e-02    1.0116242969e+05
    1.3929718174e-02    1.0116272656e+05
    1.3939605094e-02    1.0116285156e+05
    1.3949772343e-02    1.0116311719e+05
    1.3959670439e-02    1.0116310156e+05
    1.3969566673e-02    1.0116322656e+05
    1.3979736716e-02    1.0116325000e+05
    1.3989628293e-02    1.0116333594e+05
    1.3999798335e-02    1.0116347656e+05
    1.4009712264e-02    1.0116347656e+05
    1.4019640163e-02    1.0116352344e+05
    1.4029568061e-02    1.0116359375e+05
    1.4039770700e-02    1.0116347656e+05
    1.4049696736e-02    1.0116346094e+05
    1.4059621841e-02    1.0116353906e+05
    1.4069546945e-02    1.0116349219e+05
    1.4079747722e-02    1.0116358594e+05
    1.4089671895e-02    1.0116360156e+05
    1.4099597000e-02    1.0116380469e+05
    1.4109531417e-02    1.0116396875e+05
    1.4119754545e-02    1.0116387500e+05
    1.4129702933e-02    1.0116396094e+05
    1.4139648527e-02    1.0116328906e+05
    1.4149592258e-02    1.0116128906e+05
    1.4159534127e-02    1.0116146875e+05
    1.4169758186e-02    1.0116147656e+05
    1.4179715887e-02    1.0116163281e+05
    1.4189684764e-02    1.0116166406e+05
    1.4199668542e-02    1.0116155469e+05
    1.4209656976e-02    1.0116147656e+05
    1.4219642617e-02    1.0116153125e+05
    1.4229625463e-02    1.0116150781e+05
    1.4239604585e-02    1.0116152344e+05
    1.4249580912e-02    1.0116146094e+05
    1.4259579591e-02    1.0116135156e+05
    1.4269588515e-02    1.0116139844e+05
    1.4279599302e-02    1.0116146094e+05
    1.4289609157e-02    1.0116146094e+05
    1.4299620874e-02    1.0116160156e+05
    1.4309640042e-02    1.0116178125e+05
    1.4319659211e-02    1.0116184375e+05
    1.4329677448e-02    1.0116183594e+05
    1.4339694753e-02    1.0116182031e+05
    1.4349711128e-02    1.0116175000e+05
    1.4359734021e-02    1.0115990625e+05
    1.4369760640e-02    1.0116000781e+05
    1.4379507862e-02    1.0116012500e+05
    1.4389533550e-02    1.0116010156e+05
    1.4399559237e-02    1.0116028906e+05
    1.4409590513e-02    1.0116047656e+05
    1.4419628307e-02    1.0116046875e+05
    1.4429669827e-02    1.0116057031e+05
    1.4439711347e-02    1.0116071875e+05
    1.4449752867e-02    1.0116083594e+05
    1.4459514059e-02    1.0116096094e+05
    1.4469551854e-02    1.0116091406e+05
    1.4479588717e-02    1.0116091406e+05
    1.4489623718e-02    1.0116100781e+05
    1.4499662444e-02    1.0116099219e+05
    1.4509710483e-02    1.0116102344e+05
    1.4519764110e-02    1.0116102344e+05
    1.4529537410e-02    1.0116110156e+05
    1.4539590105e-02    1.0116122656e+05
    1.4549646527e-02    1.0116130469e+05
    1.4559707604e-02    1.0116128906e+05
    1.4569770545e-02    1.0116025781e+05
    1.4579555020e-02    1.0116000000e+05
    1.4589618891e-02    1.0116008594e+05
    1.4599682763e-02    1.0116025781e+05
    1.4609747566e-02    1.0116021875e+05
    1.4619531110e-02    1.0116027344e+05
    1.4629594982e-02    1.0116050781e+05
    1.4639657922e-02    1.0116090625e+05
    1.4649723656e-02    1.0116097656e+05
    1.4659509994e-02    1.0116121094e+05
    1.4669573866e-02    1.0116111719e+05
    1.4679635875e-02    1.0116128125e+05
    1.4689698815e-02    1.0116139844e+05
    1.4699496329e-02    1.0116147656e+05
    1.4709584415e-02    1.0116177344e+05
    1.4719672501e-02    1.0116178906e+05
    1.4729757793e-02    1.0116163281e+05
    1.4739560895e-02    1.0116131250e+05
    1.4749643393e-02    1.0115925000e+05
    1.4759737067e-02    1.0115872656e+05
    1.4769556932e-02    1.0115878906e+05
    1.4779662713e-02    1.0115878125e+05
    1.4789490029e-02    1.0115864844e+05
    1.4799596742e-02    1.0115869531e+05
    1.4809702523e-02    1.0115875000e+05
    1.4819527045e-02    1.0115863281e+05
    1.4829630964e-02    1.0115862500e+05
    1.4839742333e-02    1.0115877344e+05
    1.4849585481e-02    1.0115883594e+05
    1.4859715477e-02    1.0115891406e+05
    1.4869562350e-02    1.0115884375e+05
    1.4879687689e-02    1.0115883594e+05
    1.4889531769e-02    1.0115891406e+05
    1.4899654314e-02    1.0115902344e+05
    1.4909503050e-02    1.0115896875e+05
    1.4919638634e-02    1.0115919531e+05
    1.4929496683e-02    1.0115910156e+05
    1.4939637855e-02    1.0115914844e+05
    1.4949497767e-02    1.0115925000e+05
    1.4959640801e-02    1.0115931250e+05
    1.4969503507e-02    1.0115940625e+05
    1.4979650266e-02    1.0115942969e+05
    1.4989514835e-02    1.0115957031e+05
    1.4999661595e-02    1.0115966406e+05
    1.5009526163e-02    1.0115966406e+05
    1.5019671991e-02    1.0115971875e+05
    1.5029534698e-02    1.0115964844e+05
    1.5039683320e-02    1.0115952344e+05
    1.5049557202e-02    1.0115944531e+05
    1.5059712343e-02    1.0115965625e+05
    1.5069582500e-02    1.0115968750e+05
    1.5079732053e-02    1.0115986719e+05
    1.5089596622e-02    1.0115991406e+05
    1.5099747106e-02    1.0116009375e+05
    1.5109641477e-02    1.0116032031e+05
    1.5119545162e-02    1.0116049219e+05
    1.5129734762e-02    1.0116061719e+05
    1.5139639378e-02    1.0116068750e+05
    1.5149543993e-02    1.0116083594e+05
    1.5159731731e-02    1.0116100000e+05
    1.5169637278e-02    1.0116102344e+05
    1.5179542825e-02    1.0116108594e+05
    1.5189730562e-02    1.0116124219e+05
    1.5199636109e-02    1.0116142969e+05
    1.5209540725e-02    1.0116141406e+05
    1.5219729394e-02    1.0116143750e+05
    1.5229634009e-02    1.0116153906e+05
    1.5239537694e-02    1.0116164844e+05
    1.5249731950e-02    1.0116160156e+05
    1.5259649605e-02    1.0116165625e+05
    1.5269570053e-02    1.0116177344e+05
    1.5279489569e-02    1.0116190625e+05
    1.5289691277e-02    1.0116202344e+05
    1.5299608931e-02    1.0116205469e+05
    1.5309526585e-02    1.0116209375e+05
    1.5319731086e-02    1.0116208594e+05
    1.5329656191e-02    1.0116217969e+05
    1.5339584090e-02    1.0116225781e+05
    1.5349511988e-02    1.0116234375e+05
    1.5359723009e-02    1.0116250781e+05
    1.5369649045e-02    1.0116255469e+05
    1.5379574150e-02    1.0116252344e+05
    1.5389498323e-02    1.0116244531e+05
    1.5399706550e-02    1.0116074219e+05
    1.5409640037e-02    1.0116050000e+05
    1.5419580974e-02    1.0116058594e+05
    1.5429524705e-02    1.0116057031e+05
    1.5439469367e-02    1.0116074219e+05
    1.5449696220e-02    1.0116000781e+05
    1.5459639020e-02    1.0115814844e+05
    1.5469581820e-02    1.0115830469e+05
    1.5479522757e-02    1.0115833594e+05
    1.5489470214e-02    1.0115844531e+05
    1.5499711037e-02    1.0115856250e+05
    1.5509674326e-02    1.0115865625e+05
    1.5519636683e-02    1.0115888281e+05
    1.5529598109e-02    1.0115903906e+05
    1.5539557673e-02    1.0115908594e+05
    1.5549517237e-02    1.0115921094e+05
    1.5559475869e-02    1.0115935156e+05
    1.5569719486e-02    1.0115967969e+05
    1.5579678118e-02    1.0115978906e+05
    1.5589637682e-02    1.0115989844e+05
    1.5599600039e-02    1.0116015625e+05
    1.5609567054e-02    1.0116028906e+05
    1.5619540587e-02    1.0116053906e+05
    1.5629518777e-02    1.0116074219e+05
    1.5639498830e-02    1.0116071875e+05
    1.5649477020e-02    1.0116093750e+05
    1.5659455210e-02    1.0116113281e+05
    1.5669718385e-02    1.0116127344e+05
    1.5679696575e-02    1.0116038281e+05
    1.5689680353e-02    1.0115792969e+05
    1.5699667856e-02    1.0115800000e+05
    1.5709655359e-02    1.0115803906e+05
    1.5719642863e-02    1.0115824219e+05
    1.5729630366e-02    1.0115841406e+05
    1.5739616007e-02    1.0115841406e+05
    1.5749601647e-02    1.0115850781e+05
    1.5759585425e-02    1.0115875000e+05
    1.5769569203e-02    1.0115891406e+05
    1.5779558569e-02    1.0115911719e+05
    1.5789549798e-02    1.0115921094e+05
    1.5799542889e-02    1.0115936719e+05
    1.5809535980e-02    1.0115949219e+05
    1.5819532797e-02    1.0115953125e+05
    1.5829527751e-02    1.0115953906e+05
    1.5839520842e-02    1.0115978906e+05
    1.5849512070e-02    1.0115982031e+05
    1.5859503299e-02    1.0116012500e+05
    1.5869492665e-02    1.0116030469e+05
    1.5879493207e-02    1.0116043750e+05
    1.5889503062e-02    1.0116053125e+05
    1.5899514779e-02    1.0116086719e+05
    1.5909528360e-02    1.0116089844e+05
    1.5919540077e-02    1.0116110156e+05
    1.5929551795e-02    1.0116124219e+05
    1.5939561650e-02    1.0116152344e+05
    1.5949575230e-02    1.0116178906e+05
    1.5959596261e-02    1.0116200000e+05
    1.5969621018e-02    1.0116216406e+05
    1.5979647636e-02    1.0116209375e+05
    1.5989674255e-02    1.0116221875e+05
    1.5999697149e-02    1.0116230469e+05
    1.6009720042e-02    1.0116238281e+05
    1.6019739211e-02    1.0116238281e+05
    1.6029471532e-02    1.0116258594e+05
    1.6039498150e-02    1.0116267969e+05
    1.6049539670e-02    1.0116271094e+05
    1.6059590504e-02    1.0116275781e+05
    1.6069643199e-02    1.0116096875e+05
    1.6079695895e-02    1.0115960156e+05
    1.6089748591e-02    1.0115974219e+05
    1.6099510714e-02    1.0115913281e+05
    1.6109561548e-02    1.0115647656e+05
    1.6119610518e-02    1.0115663281e+05
    1.6129663214e-02    1.0115663281e+05
    1.6139719635e-02    1.0115677344e+05
    1.6149491072e-02    1.0115683594e+05
    1.6159549356e-02    1.0115671094e+05
    1.6169609502e-02    1.0115503906e+05
    1.6179669648e-02    1.0115527344e+05
    1.6189727932e-02    1.0115543750e+05
    1.6199497506e-02    1.0115565625e+05
    1.6209555790e-02    1.0115589844e+05
    1.6219614074e-02    1.0115567969e+05
    1.6229670495e-02    1.0115411719e+05
    1.6239728779e-02    1.0115414844e+05
    1.6249502078e-02    1.0115441406e+05
    1.6259565949e-02    1.0115460156e+05
    1.6269631684e-02    1.0115478906e+05
    1.6279699281e-02    1.0115493750e+05
    1.6289766878e-02    1.0115491406e+05
    1.6299545765e-02    1.0115502344e+05
    1.6309613362e-02    1.0115518750e+05
    1.6319680959e-02    1.0115513281e+05
    1.6329750419e-02    1.0115367969e+05
    1.6339529306e-02    1.0115378125e+05
    1.6349596903e-02    1.0115382031e+05
    1.6359662637e-02    1.0115387500e+05
    1.6369730234e-02    1.0115391406e+05
    1.6379507259e-02    1.0115415625e+05
    1.6389574856e-02    1.0115400781e+05
    1.6399638727e-02    1.0115271875e+05
    1.6409706324e-02    1.0115285156e+05
    1.6419490799e-02    1.0115200000e+05
    1.6429565847e-02    1.0115159375e+05
    1.6439640895e-02    1.0115193750e+05
    1.6449715942e-02    1.0115215625e+05
    1.6459502280e-02    1.0115221094e+05
    1.6469575465e-02    1.0115239844e+05
    1.6479646787e-02    1.0115239844e+05
    1.6489719972e-02    1.0115242969e+05
    1.6499504447e-02    1.0115239844e+05
    1.6509579495e-02    1.0115256250e+05
    1.6519654542e-02    1.0115260156e+05
    1.6529729590e-02    1.0115261719e+05
    1.6539515927e-02    1.0115269531e+05
    1.6549589112e-02    1.0115280469e+05
    1.6559662297e-02    1.0115282031e+05
    1.6569737345e-02    1.0115287500e+05
    1.6579529271e-02    1.0115294531e+05
    1.6589617357e-02    1.0115271094e+05
    1.6599707305e-02    1.0115037500e+05
    1.6609508544e-02    1.0115040625e+05
    1.6619598493e-02    1.0115066406e+05
    1.6629688442e-02    1.0115089844e+05
    1.6639776528e-02    1.0115097656e+05
    1.6649577767e-02    1.0115117969e+05
    1.6659667715e-02    1.0115133594e+05
    1.6669759527e-02    1.0115153125e+05
    1.6679560766e-02    1.0115146875e+05
    1.6689648852e-02    1.0115146875e+05
    1.6699736938e-02    1.0115153906e+05
    1.6709534451e-02    1.0115177344e+05
    1.6719618812e-02    1.0115175781e+05
    1.6729708761e-02    1.0115185156e+05
    1.6739517450e-02    1.0115213281e+05
    1.6749618575e-02    1.0115209375e+05
    1.6759719700e-02    1.0115221875e+05
    1.6769533977e-02    1.0115228906e+05
    1.6779633239e-02    1.0115241406e+05
    1.6789734364e-02    1.0115238281e+05
    1.6799544916e-02    1.0115258594e+05
    1.6809642315e-02    1.0115262500e+05
    1.6819739714e-02    1.0115258594e+05
    1.6829552129e-02    1.0115262500e+05
    1.6839656979e-02    1.0115259375e+05
    1.6849767417e-02    1.0115267969e+05
    1.6859589145e-02    1.0115257031e+05
    1.6869699582e-02    1.0115253906e+05
    1.6879519448e-02    1.0115265625e+05
    1.6889626160e-02    1.0115256250e+05
    1.6899732873e-02    1.0115258594e+05
    1.6909549013e-02    1.0115260156e+05
    1.6919652000e-02    1.0115262500e+05
    1.6929756850e-02    1.0115269531e+05
    1.6939582303e-02    1.0115243750e+05
    1.6949703917e-02    1.0115241406e+05
    1.6959540546e-02    1.0115228906e+05
    1.6969664022e-02    1.0115222656e+05
    1.6979787499e-02    1.0115225781e+05
    1.6989622265e-02    1.0115215625e+05
    1.6999747604e-02    1.0115216406e+05
    1.7009584233e-02    1.0115214844e+05
    1.7019713297e-02    1.0115216406e+05
    1.7029551789e-02    1.0115224219e+05
    1.7039677128e-02    1.0115221875e+05
    1.7049804330e-02    1.0115225781e+05
    1.7059639096e-02    1.0115227344e+05
    1.7069764435e-02    1.0115233594e+05
    1.7079601064e-02    1.0115241406e+05
    1.7089724541e-02    1.0115246875e+05
    1.7099559307e-02    1.0115233594e+05
    1.7109684646e-02    1.0115247656e+05
    1.7119808123e-02    1.0115242969e+05
    1.7129642889e-02    1.0115241406e+05
    1.7139770091e-02    1.0115238281e+05
    1.7149614170e-02    1.0115243750e+05
    1.7159748822e-02    1.0115222656e+05
    1.7169594765e-02    1.0115222656e+05
    1.7179729417e-02    1.0114990625e+05
    1.7189573497e-02    1.0114875000e+05
    1.7199708149e-02    1.0114858594e+05
    1.7209554091e-02    1.0114852344e+05
    1.7219694331e-02    1.0114832031e+05
    1.7229553312e-02    1.0114846094e+05
    1.7239706591e-02    1.0114853906e+05
    1.7249567434e-02    1.0114860156e+05
    1.7259715125e-02    1.0114863281e+05
    1.7269572243e-02    1.0114871875e+05
    1.7279719934e-02    1.0114888281e+05
    1.7289578915e-02    1.0114890625e+05
    1.7299739644e-02    1.0114765625e+05
    1.7309613526e-02    1.0114611719e+05
    1.7319774255e-02    1.0114597656e+05
    1.7329644412e-02    1.0114632031e+05
    1.7339803278e-02    1.0114627344e+05
    1.7349673435e-02    1.0114619531e+05
    1.7359543592e-02    1.0114639844e+05
    1.7369706184e-02    1.0114660156e+05
    1.7379580066e-02    1.0114683594e+05
    1.7389753833e-02    1.0114689844e+05
    1.7399650067e-02    1.0114712500e+05
    1.7409557477e-02    1.0114721875e+05
    1.7419755459e-02    1.0114722656e+05
    1.7429657280e-02    1.0114716406e+05
    1.7439559102e-02    1.0114725000e+05
    1.7449749634e-02    1.0114650000e+05
    1.7459647730e-02    1.0114528906e+05
    1.7469547689e-02    1.0114532031e+05
    1.7479740083e-02    1.0114555469e+05
    1.7489649355e-02    1.0114571094e+05
    1.7499567941e-02    1.0114585156e+05
    1.7509784549e-02    1.0114613281e+05
    1.7519710585e-02    1.0114627344e+05
    1.7529636621e-02    1.0114637500e+05
    1.7539562657e-02    1.0114647656e+05
    1.7549779266e-02    1.0114652344e+05
    1.7559703439e-02    1.0114647656e+05
    1.7569627613e-02    1.0114650781e+05
    1.7579551786e-02    1.0114650000e+05
    1.7589764670e-02    1.0114671875e+05
    1.7599685118e-02    1.0114667969e+05
    1.7609605566e-02    1.0114666406e+05
    1.7619818449e-02    1.0114672656e+05
    1.7629738897e-02    1.0114684375e+05
    1.7639663070e-02    1.0114541406e+05
    1.7649585381e-02    1.0114516406e+05
    1.7659800127e-02    1.0114517969e+05
    1.7669722438e-02    1.0114521094e+05
    1.7679648474e-02    1.0114534375e+05
    1.7689576373e-02    1.0114541406e+05
    1.7699800432e-02    1.0114553125e+05
    1.7709733918e-02    1.0114532031e+05
    1.7719671130e-02    1.0114168750e+05
    1.7729610205e-02    1.0113775000e+05
    1.7739841715e-02    1.0113759375e+05
    1.7749780789e-02    1.0113791406e+05
    1.7759718001e-02    1.0113817969e+05
    1.7769653350e-02    1.0113821875e+05
    1.7779588699e-02    1.0113818750e+05
    1.7789816484e-02    1.0113782031e+05
    1.7799749970e-02    1.0113782031e+05
    1.7809687182e-02    1.0113799219e+05
    1.7819628119e-02    1.0113831250e+05
    1.7829576507e-02    1.0113849219e+05
    1.7839817330e-02    1.0113867969e+05
    1.7849765718e-02    1.0113878906e+05
    1.7859714106e-02    1.0113885156e+05
    1.7869660631e-02    1.0113875781e+05
    1.7879607156e-02    1.0113887500e+05
    1.7889846116e-02    1.0113892969e+05
    1.7899792641e-02    1.0113913281e+05
    1.7909737304e-02    1.0113907031e+05
    1.7919681966e-02    1.0113925000e+05
    1.7929624766e-02    1.0113928906e+05
    1.7939854413e-02    1.0113881250e+05
    1.7949787900e-02    1.0113783594e+05
    1.7959713936e-02    1.0113799219e+05
    1.7969632521e-02    1.0113791406e+05
    1.7979837954e-02    1.0113791406e+05
    1.7989747226e-02    1.0113799219e+05
    1.7999649048e-02    1.0113802344e+05
    1.8009837717e-02    1.0113797656e+05
    1.8019732088e-02    1.0113827344e+05
    1.8029619008e-02    1.0113832031e+05
    1.8039794639e-02    1.0113850781e+05
    1.8049690872e-02    1.0113850781e+05
    1.8059717491e-02    1.0113853906e+05
    1.8069595098e-02    1.0113867969e+05
    1.8079619855e-02    1.0113887500e+05
    1.8089786172e-02    1.0113903906e+05
    1.8099782988e-02    1.0113919531e+05
    1.8109593540e-02    1.0113928125e+05
    1.8119852990e-02    1.0113953906e+05
    1.8129592761e-02    1.0113967969e+05
    1.8139781430e-02    1.0113994531e+05
    1.8149763346e-02    1.0114011719e+05
    1.8159862608e-02    1.0114033594e+05
    1.8169734627e-02    1.0114058594e+05
    1.8179716542e-02    1.0114075000e+05
    1.8189810216e-02    1.0114096094e+05
    1.8199658021e-02    1.0114103906e+05
    1.8209604546e-02    1.0114114844e+05
    1.8219646066e-02    1.0114122656e+05
    1.8229786307e-02    1.0114127344e+05
    1.8239645287e-02    1.0114128906e+05
    1.8249584362e-02    1.0114128125e+05
    1.8259607255e-02    1.0113984375e+05
    1.8269708380e-02    1.0113891406e+05
    1.8279507756e-02    1.0113900781e+05
    1.8289744854e-02    1.0113908594e+05
    1.8299652264e-02    1.0113891406e+05
    1.8309833482e-02    1.0113896875e+05
    1.8319671974e-02    1.0113891406e+05
    1.8329767510e-02    1.0113878125e+05
    1.8339855596e-02    1.0113888281e+05
    1.8349686638e-02    1.0113866406e+05
    1.8359784037e-02    1.0113888281e+05
    1.8369639292e-02    1.0113903125e+05
    1.8379792571e-02    1.0113921094e+05
    1.8389709294e-02    1.0113928125e+05
    1.8399633467e-02    1.0113938281e+05
    1.8409823999e-02    1.0113946094e+05
    1.8419753760e-02    1.0113966406e+05
    1.8429683521e-02    1.0113980469e+05
    1.8439872190e-02    1.0113974219e+05
    1.8449798226e-02    1.0113967969e+05
    1.8459727988e-02    1.0113988281e+05
    1.8469678238e-02    1.0113997656e+05
    1.8479645252e-02    1.0113999219e+05
    1.8489878625e-02    1.0113991406e+05
    1.8499847502e-02    1.0113772656e+05
    1.8509816378e-02    1.0113735156e+05
    1.8519785255e-02    1.0113750000e+05
    1.8529755995e-02    1.0113775781e+05
    1.8539724872e-02    1.0113769531e+05
    1.8549693748e-02    1.0113778125e+05
    1.8559662625e-02    1.0113766406e+05
    1.8569633365e-02    1.0113764844e+05
    1.8579883501e-02    1.0113775781e+05
    1.8589895219e-02    1.0113640625e+05
    1.8599659204e-02    1.0113593750e+05
    1.8609689549e-02    1.0113600000e+05
    1.8619719893e-02    1.0113597656e+05
    1.8629748374e-02    1.0113593750e+05
    1.8639776856e-02    1.0113603906e+05
    1.8649803475e-02    1.0113583594e+05
    1.8659831956e-02    1.0113583594e+05
    1.8669858575e-02    1.0113577344e+05
    1.8679888919e-02    1.0113517969e+05
    1.8689658493e-02    1.0113385156e+05
    1.8699694425e-02    1.0113394531e+05
    1.8709732220e-02    1.0113383594e+05
    1.8719771877e-02    1.0113388281e+05
    1.8729811534e-02    1.0113415625e+05
    1.8739851192e-02    1.0113415625e+05
    1.8749890849e-02    1.0113427344e+05
    1.8759664148e-02    1.0113425000e+05
    1.8769703805e-02    1.0113422656e+05
    1.8779741600e-02    1.0113453906e+05
    1.8789777532e-02    1.0113452344e+05
    1.8799815327e-02    1.0113464844e+05
    1.8809854984e-02    1.0113461719e+05
    1.8819892779e-02    1.0113447656e+05
    1.8829667941e-02    1.0113452344e+05
    1.8839707598e-02    1.0113458594e+05
    1.8849747255e-02    1.0113466406e+05
    1.8859788775e-02    1.0113458594e+05
    1.8869835883e-02    1.0113457031e+05
    1.8879886717e-02    1.0113464844e+05
    1.8889682367e-02    1.0113492969e+05
    1.8899744377e-02    1.0113487500e+05
    1.8909810111e-02    1.0113490625e+05
    1.8919873983e-02    1.0113503906e+05
    1.8929673359e-02    1.0113516406e+05
    1.8939737231e-02    1.0113528906e+05
    1.8949801102e-02    1.0113547656e+05
    1.8959861249e-02    1.0113549219e+05
    1.8969658762e-02    1.0113577344e+05
    1.8979717046e-02    1.0113600000e+05
    1.8989777192e-02    1.0113615625e+05
    1.8999837339e-02    1.0113615625e+05
    1.9009899348e-02    1.0113628906e+05
    1.9019698724e-02    1.0113632031e+05
    1.9029762596e-02    1.0113652344e+05
    1.9039828330e-02    1.0113664844e+05
    1.9049894065e-02    1.0113667969e+05
    1.9059697166e-02    1.0113688281e+05
    1.9069762900e-02    1.0113544531e+05
    1.9079830498e-02    1.0113425000e+05
    1.9089896232e-02    1.0113436719e+05
    1.9099699333e-02    1.0113430469e+05
    1.9109765068e-02    1.0113431250e+05
    1.9119828939e-02    1.0113447656e+05
    1.9129892811e-02    1.0113450000e+05
    1.9139692187e-02    1.0113458594e+05
    1.9149756059e-02    1.0113457031e+05
    1.9159827381e-02    1.0113435156e+05
    1.9169919193e-02    1.0113450781e+05
    1.9179763272e-02    1.0113447656e+05
    1.9189884886e-02    1.0113467969e+05
    1.9199740142e-02    1.0113490625e+05
    1.9209861755e-02    1.0113502344e+05
    1.9219715148e-02    1.0113487500e+05
    1.9229834899e-02    1.0113497656e+05
    1.9239688292e-02    1.0113500000e+05
    1.9249806181e-02    1.0113518750e+05
    1.9259927794e-02    1.0113425000e+05
    1.9269792363e-02    1.0113256250e+05
    1.9279669970e-02    1.0113239844e+05
    1.9289828837e-02    1.0112991406e+05
    1.9299725071e-02    1.0112589844e+05
    1.9309889525e-02    1.0112577344e+05
    1.9319785759e-02    1.0112572656e+05
    1.9329681993e-02    1.0112571094e+05
    1.9339842722e-02    1.0112555469e+05
    1.9349735230e-02    1.0112561719e+05
    1.9359895959e-02    1.0112544531e+05
    1.9369790331e-02    1.0112558594e+05
    1.9379692152e-02    1.0112566406e+05
    1.9389871508e-02    1.0112578906e+05
    1.9399793819e-02    1.0112572656e+05
    1.9409725443e-02    1.0112547656e+05
    1.9419929013e-02    1.0112388281e+05
    1.9429864362e-02    1.0112359375e+05
    1.9439799711e-02    1.0112372656e+05
[...]
    6.5135911107e-02    1.0109071094e+05
    6.5145812929e-02    1.0109017969e+05
    6.5156057477e-02    1.0109022656e+05
    6.5165959299e-02    1.0109052344e+05
    6.5175861120e-02    1.0108960156e+05
    6.5185755491e-02    1.0108900781e+05
    6.5196000040e-02    1.0108917969e+05
    6.5205901861e-02    1.0108910156e+05
    6.5215803683e-02    1.0108910156e+05
    6.5226048231e-02    1.0108878906e+05
    6.5235950053e-02    1.0108828906e+05
    6.5245851874e-02    1.0108812500e+05
    6.5255761147e-02    1.0108782031e+05
    6.5266005695e-02    1.0108747656e+05
    6.5275907516e-02    1.0108700000e+05
    6.5285809338e-02    1.0108621875e+05
    6.5296053886e-02    1.0108546875e+05
    6.5305955708e-02    1.0108468750e+05
    6.5315864980e-02    1.0108347656e+05
    6.5325766802e-02    1.0108314844e+05
    6.5336011350e-02    1.0108264844e+05
    6.5345913172e-02    1.0108243750e+05
    6.5355822444e-02    1.0108115625e+05
    6.5366066992e-02    1.0108047656e+05
    6.5375968814e-02    1.0107985156e+05
    6.5385870636e-02    1.0107896875e+05
    6.5395779908e-02    1.0107863281e+05
    6.5406024456e-02    1.0107813281e+05
    6.5415933728e-02    1.0107716406e+05
    6.5425835550e-02    1.0107727344e+05
    6.5435744822e-02    1.0107728906e+05
    6.5445989370e-02    1.0107735156e+05
    6.5455891192e-02    1.0107666406e+05
    6.5465800464e-02    1.0107633594e+05
    6.5476045012e-02    1.0107621094e+05
    6.5485954285e-02    1.0107562500e+05
    6.5495856106e-02    1.0107385156e+05
    6.5505765378e-02    1.0107331250e+05
    6.5516009927e-02    1.0107200000e+05
    6.5525911748e-02    1.0107061719e+05
    6.5535821021e-02    1.0106978906e+05
    6.5545730293e-02    1.0106885156e+05
    6.5555974841e-02    1.0106755469e+05
    6.5565884113e-02    1.0106663281e+05
    6.5575785935e-02    1.0106541406e+05
    6.5586037934e-02    1.0106521875e+05
    6.5595939755e-02    1.0106461719e+05
    6.5605849028e-02    1.0106460156e+05
    6.5615750849e-02    1.0106372656e+05
    6.5626002848e-02    1.0106307031e+05
    6.5635912120e-02    1.0106303125e+05
    6.5645813942e-02    1.0106237500e+05
    6.5655723214e-02    1.0106243750e+05
    6.5665967762e-02    1.0106242969e+05
    6.5675877035e-02    1.0106263281e+05
    6.5685778856e-02    1.0106277344e+05
    6.5695688128e-02    1.0106312500e+05
    6.5705940127e-02    1.0106353906e+05
    6.5715841949e-02    1.0106408594e+05
    6.5725751221e-02    1.0106471094e+05
    6.5736003220e-02    1.0106509375e+05
    6.5745905042e-02    1.0106591406e+05
    6.5755814314e-02    1.0106643750e+05
    6.5765723586e-02    1.0106694531e+05
    6.5775968134e-02    1.0106753125e+05
    6.5785877407e-02    1.0106800781e+05
    6.5795786679e-02    1.0106871094e+05
    6.5805695951e-02    1.0106900000e+05
    6.5815940499e-02    1.0106950000e+05
    6.5825849771e-02    1.0106977344e+05
    6.5835759044e-02    1.0107032031e+05
    6.5846003592e-02    1.0107060156e+05
    6.5855912864e-02    1.0107093750e+05
    6.5865822136e-02    1.0107127344e+05
    6.5875723958e-02    1.0107169531e+05
    6.5885975957e-02    1.0107228906e+05
    6.5895885229e-02    1.0107272656e+05
    6.5905794501e-02    1.0107303125e+05
    6.5915703773e-02    1.0107305469e+05
    6.5925948322e-02    1.0107309375e+05
    6.5935857594e-02    1.0107335156e+05
    6.5945766866e-02    1.0107353906e+05
    6.5955676138e-02    1.0107365625e+05
    6.5965920687e-02    1.0107375781e+05
    6.5975829959e-02    1.0107393750e+05
    6.5985739231e-02    1.0107421094e+05
    6.5995648503e-02    1.0107460156e+05
    6.6005900502e-02    1.0107492969e+05
    6.6015802324e-02    1.0107543750e+05
    6.6025711596e-02    1.0107600781e+05
    6.6035963595e-02    1.0107646875e+05
    6.6045872867e-02    1.0107702344e+05
    6.6055782139e-02    1.0107771094e+05
    6.6065691411e-02    1.0107842969e+05
    6.6075943410e-02    1.0107907031e+05
    6.6085852683e-02    1.0107996094e+05
    6.6095754504e-02    1.0108060156e+05
    6.6105663776e-02    1.0108132031e+05
    6.6115915775e-02    1.0108221094e+05
    6.6125825047e-02    1.0108299219e+05
    6.6135734320e-02    1.0108337500e+05
    6.6145643592e-02    1.0108418750e+05
    6.6155895591e-02    1.0108515625e+05
    6.6165804863e-02    1.0108547656e+05
    6.6175714135e-02    1.0108592969e+05
    6.6185623407e-02    1.0108634375e+05
    6.6195875406e-02    1.0108689844e+05
    6.6205784678e-02    1.0108736719e+05
    6.6215693951e-02    1.0108791406e+05
    6.6225945950e-02    1.0108837500e+05
    6.6235855222e-02    1.0108877344e+05
    6.6245764494e-02    1.0108931250e+05
    6.6255673766e-02    1.0108978125e+05
    6.6265925765e-02    1.0109027344e+05
    6.6275835037e-02    1.0109083594e+05
    6.6285744309e-02    1.0109130469e+05
    6.6295653582e-02    1.0109180469e+05
    6.6305905581e-02    1.0109235156e+05
    6.6315814853e-02    1.0109278906e+05
    6.6325724125e-02    1.0109322656e+05
    6.6335633397e-02    1.0109377344e+05
    6.6345885396e-02    1.0109428125e+05
    6.6355794668e-02    1.0109469531e+05
    6.6365703940e-02    1.0109542969e+05
    6.6375613213e-02    1.0109586719e+05
    6.6385865211e-02    1.0109630469e+05
    6.6395774484e-02    1.0109681250e+05
    6.6405683756e-02    1.0109743750e+05
    6.6415600479e-02    1.0109791406e+05
    6.6425852478e-02    1.0109840625e+05
    6.6435761750e-02    1.0109886719e+05
    6.6445671022e-02    1.0109928125e+05
    6.6455923021e-02    1.0109974219e+05
    6.6465832293e-02    1.0110021094e+05
    6.6475741565e-02    1.0110067969e+05
    6.6485650837e-02    1.0110108594e+05
    6.6495902836e-02    1.0110144531e+05
    6.6505819559e-02    1.0110185156e+05
    6.6515728831e-02    1.0110230469e+05
    6.6525638103e-02    1.0110267969e+05
    6.6535890102e-02    1.0110308594e+05
    6.6545799375e-02    1.0110331250e+05
    6.6555708647e-02    1.0110367969e+05
    6.6565625370e-02    1.0110397656e+05
    6.6575877368e-02    1.0110442969e+05
    6.6585786641e-02    1.0110474219e+05
    6.6595695913e-02    1.0110503906e+05
    6.6605605185e-02    1.0110546094e+05
    6.6615864635e-02    1.0110585156e+05
    6.6625773907e-02    1.0110610156e+05
    6.6635683179e-02    1.0110662500e+05
    6.6645592451e-02    1.0110685156e+05
    6.6655844450e-02    1.0110718750e+05
    6.6665761173e-02    1.0110752344e+05
    6.6675670445e-02    1.0110785156e+05
    6.6685579717e-02    1.0110825781e+05
    6.6695831716e-02    1.0110866406e+05
    6.6705748439e-02    1.0110908594e+05
    6.6715657711e-02    1.0110939844e+05
    6.6725566983e-02    1.0110983594e+05
    6.6735826433e-02    1.0111021875e+05
    6.6745735705e-02    1.0111068750e+05
    6.6755644977e-02    1.0111088281e+05
    6.6765561700e-02    1.0111127344e+05
    6.6775813699e-02    1.0111155469e+05
    6.6785722971e-02    1.0111182031e+05
    6.6795632243e-02    1.0111206250e+05
    6.6805548966e-02    1.0111219531e+05
    6.6815800965e-02    1.0111246094e+05
    6.6825710237e-02    1.0111285156e+05
    6.6835626960e-02    1.0111321094e+05
    6.6845536232e-02    1.0111355469e+05
    6.6855788231e-02    1.0111382031e+05
    6.6865697503e-02    1.0111402344e+05
    6.6875614226e-02    1.0111435156e+05
    6.6885866225e-02    1.0111466406e+05
    6.6895775497e-02    1.0111491406e+05
    6.6905692220e-02    1.0111519531e+05
    6.6915601492e-02    1.0111540625e+05
    6.6925860941e-02    1.0111542969e+05
    6.6935770214e-02    1.0111452344e+05
    6.6945679486e-02    1.0111474219e+05
    6.6955596209e-02    1.0111491406e+05
    6.6965848207e-02    1.0111439844e+05
    6.6975764930e-02    1.0111382031e+05
    6.6985681653e-02    1.0111403906e+05
    6.6995590925e-02    1.0111416406e+05
    6.7005850375e-02    1.0111440625e+05
    6.7015759647e-02    1.0111446094e+05
    6.7025676370e-02    1.0111446094e+05
    6.7035593092e-02    1.0111477344e+05
    6.7045509815e-02    1.0111472656e+05
    6.7055761814e-02    1.0111417969e+05
    6.7065678537e-02    1.0111397656e+05
    6.7075595260e-02    1.0111389844e+05
    6.7085511982e-02    1.0111368750e+05
    6.7095771432e-02    1.0111375781e+05
    6.7105688155e-02    1.0111375000e+05
    6.7115604877e-02    1.0111365625e+05
    6.7125521600e-02    1.0111352344e+05
    6.7135781050e-02    1.0111339844e+05
    6.7145697773e-02    1.0111316406e+05
    6.7155614495e-02    1.0111327344e+05
    6.7165531218e-02    1.0111310156e+05
    6.7175790668e-02    1.0111328125e+05
    6.7185707390e-02    1.0111328906e+05
    6.7195631564e-02    1.0111322656e+05
    6.7205548286e-02    1.0111142969e+05
    6.7215807736e-02    1.0111156250e+05
    6.7225724459e-02    1.0111165625e+05
    6.7235641181e-02    1.0111171094e+05
    6.7245565355e-02    1.0111180469e+05
    6.7255482078e-02    1.0111121875e+05
    6.7265741527e-02    1.0110991406e+05
    6.7275658250e-02    1.0110935156e+05
    6.7285574973e-02    1.0110891406e+05
    6.7295499146e-02    1.0110891406e+05
    6.7305758595e-02    1.0110908594e+05
    6.7315675318e-02    1.0110758594e+05
    6.7325599492e-02    1.0110706250e+05
    6.7335516214e-02    1.0110622656e+05
    6.7345775664e-02    1.0110597656e+05
    6.7355692387e-02    1.0110621875e+05
    6.7365616560e-02    1.0110633594e+05
    6.7375533283e-02    1.0110593750e+05
    6.7385792732e-02    1.0110555469e+05
    6.7395716906e-02    1.0110485156e+05
    6.7405633628e-02    1.0110494531e+05
    6.7415557802e-02    1.0110502344e+05
    6.7425474524e-02    1.0110411719e+05
    6.7435733974e-02    1.0110347656e+05
    6.7445658147e-02    1.0110322656e+05
    6.7455574870e-02    1.0110328906e+05
    6.7465499043e-02    1.0110321875e+05
    6.7475758493e-02    1.0110278906e+05
    6.7485682666e-02    1.0110271094e+05
    6.7495599389e-02    1.0110272656e+05
    6.7505523562e-02    1.0110290625e+05
    6.7515783012e-02    1.0110275781e+05
    6.7525707185e-02    1.0110233594e+05
    6.7535623908e-02    1.0110128906e+05
    6.7545548081e-02    1.0110041406e+05
    6.7555472255e-02    1.0109956250e+05
    6.7565731704e-02    1.0109961719e+05
    6.7575655878e-02    1.0109819531e+05
    6.7585572600e-02    1.0109799219e+05
    6.7595496774e-02    1.0109813281e+05
    6.7605763674e-02    1.0109818750e+05
    6.7615680397e-02    1.0109835156e+05
    6.7625604570e-02    1.0109791406e+05
    6.7635528743e-02    1.0109762500e+05
    6.7645445466e-02    1.0109752344e+05
    6.7655712366e-02    1.0109715625e+05
    6.7665629089e-02    1.0109613281e+05
    6.7675553262e-02    1.0109571094e+05
    6.7685477436e-02    1.0109410156e+05
    6.7695736885e-02    1.0109321875e+05
    6.7705661058e-02    1.0109355469e+05
    6.7715585232e-02    1.0109332031e+05
    6.7725509405e-02    1.0109339844e+05
    6.7735426128e-02    1.0109316406e+05
    6.7745693028e-02    1.0109309375e+05
    6.7755617201e-02    1.0109190625e+05
    6.7765533924e-02    1.0109157031e+05
    6.7775458097e-02    1.0109124219e+05
    6.7785724998e-02    1.0109100000e+05
    6.7795649171e-02    1.0109085156e+05
    6.7805565894e-02    1.0109049219e+05
    6.7815490067e-02    1.0108989844e+05
    6.7825414240e-02    1.0108921094e+05
    6.7835681140e-02    1.0108928906e+05
    6.7845597863e-02    1.0108914844e+05
    6.7855522037e-02    1.0108936719e+05
    6.7865446210e-02    1.0108941406e+05
    6.7875713110e-02    1.0108909375e+05
    6.7885637283e-02    1.0108886719e+05
    6.7895554006e-02    1.0108885156e+05
    6.7905478179e-02    1.0108872656e+05
    6.7915402353e-02    1.0108882031e+05
    6.7925669253e-02    1.0108891406e+05
    6.7935593426e-02    1.0108868750e+05
    6.7945517600e-02    1.0108858594e+05
    6.7955434322e-02    1.0108847656e+05
    6.7965701222e-02    1.0108836719e+05
    6.7975625396e-02    1.0108818750e+05
    6.7985549569e-02    1.0108778906e+05
    6.7995473742e-02    1.0108762500e+05
    6.8005397916e-02    1.0108727344e+05
    6.8015657365e-02    1.0108728125e+05
    6.8025581539e-02    1.0108728906e+05
    6.8035505712e-02    1.0108742969e+05
    6.8045429885e-02    1.0108733594e+05
    6.8055696785e-02    1.0108600000e+05
    6.8065613508e-02    1.0108591406e+05
    6.8075537682e-02    1.0108600000e+05
    6.8085461855e-02    1.0108580469e+05
    6.8095386028e-02    1.0108575781e+05
    6.8105652928e-02    1.0108552344e+05
    6.8115577102e-02    1.0108528125e+05
    6.8125501275e-02    1.0108527344e+05
    6.8135425448e-02    1.0108512500e+05
    6.8145692348e-02    1.0108503906e+05
    6.8155616522e-02    1.0108489844e+05
    6.8165540695e-02    1.0108440625e+05
    6.8175464869e-02    1.0108431250e+05
    6.8185389042e-02    1.0108422656e+05
    6.8195655942e-02    1.0108417969e+05
    6.8205580115e-02    1.0108408594e+05
    6.8215504289e-02    1.0108405469e+05
    6.8225428462e-02    1.0108341406e+05
    6.8235352635e-02    1.0108338281e+05
    6.8245619535e-02    1.0108335156e+05
    6.8255543709e-02    1.0108339844e+05
    6.8265467882e-02    1.0108341406e+05
    6.8275392056e-02    1.0108264844e+05
    6.8285658956e-02    1.0108189844e+05
    6.8295583129e-02    1.0108207031e+05
    6.8305514753e-02    1.0108222656e+05
    6.8315438926e-02    1.0108207031e+05
    6.8325363100e-02    1.0108200781e+05
    6.8335630000e-02    1.0108190625e+05
    6.8345554173e-02    1.0108174219e+05
    6.8355485797e-02    1.0108196094e+05
    6.8365409970e-02    1.0108153906e+05
    6.8375334144e-02    1.0107971094e+05
    6.8385601044e-02    1.0107914844e+05
    6.8395525217e-02    1.0107797656e+05
    6.8405456841e-02    1.0107806250e+05
    6.8415381014e-02    1.0107772656e+05
    6.8425647914e-02    1.0107644531e+05
    6.8435572088e-02    1.0107622656e+05
    6.8445503712e-02    1.0107600781e+05
    6.8455427885e-02    1.0107608594e+05
    6.8465352058e-02    1.0107594531e+05
    6.8475626409e-02    1.0107581250e+05
    6.8485550582e-02    1.0107596094e+05
    6.8495482206e-02    1.0107593750e+05
    6.8505406380e-02    1.0107602344e+05
    6.8515330553e-02    1.0107593750e+05
    6.8525604904e-02    1.0107585156e+05
    6.8535529077e-02    1.0107558594e+05
    6.8545460701e-02    1.0107539844e+05
    6.8555384874e-02    1.0107525781e+05
    6.8565316498e-02    1.0107494531e+05
    6.8575583398e-02    1.0107483594e+05
    6.8585507572e-02    1.0107471094e+05
    6.8595439196e-02    1.0107466406e+05
    6.8605363369e-02    1.0107410156e+05
    6.8615637720e-02    1.0107389844e+05
    6.8625561893e-02    1.0107408594e+05
    6.8635493517e-02    1.0107409375e+05
    6.8645417690e-02    1.0107410156e+05
    6.8655349314e-02    1.0107384375e+05
    6.8665616214e-02    1.0107369531e+05
    6.8675547838e-02    1.0107358594e+05
    6.8685472012e-02    1.0107352344e+05
    6.8695403636e-02    1.0107353906e+05
    6.8705327809e-02    1.0107347656e+05
    6.8715602160e-02    1.0107342969e+05
    6.8725533783e-02    1.0107355469e+05
    6.8735457957e-02    1.0107353906e+05
    6.8745389581e-02    1.0107285156e+05
    6.8755321205e-02    1.0107249219e+05
    6.8765588105e-02    1.0107139844e+05
    6.8775519729e-02    1.0107124219e+05
    6.8785451353e-02    1.0107010156e+05
    6.8795375526e-02    1.0107021094e+05
    6.8805307150e-02    1.0107039844e+05
    6.8815581501e-02    1.0107000000e+05
    6.8825513124e-02    1.0106993750e+05
    6.8835444748e-02    1.0107002344e+05
    6.8845376372e-02    1.0107006250e+05
    6.8855307996e-02    1.0107019531e+05
    6.8865582347e-02    1.0107027344e+05
    6.8875513971e-02    1.0106975000e+05
    6.8885453045e-02    1.0106863281e+05
    6.8895384669e-02    1.0106839844e+05
    6.8905316293e-02    1.0106789844e+05
    6.8915590644e-02    1.0106807031e+05
    6.8925522268e-02    1.0106764844e+05
    6.8935453892e-02    1.0106757031e+05
    6.8945392966e-02    1.0106653125e+05
    6.8955324590e-02    1.0106661719e+05
    6.8965256214e-02    1.0106600781e+05
    6.8975530565e-02    1.0106567969e+05
    6.8985462189e-02    1.0106521875e+05
    6.8995401263e-02    1.0106514844e+05
    6.9005332887e-02    1.0106515625e+05
    6.9015264511e-02    1.0106481250e+05
    6.9025546312e-02    1.0106444531e+05
    6.9035477936e-02    1.0106461719e+05
    6.9045409560e-02    1.0106428906e+05
    6.9055348635e-02    1.0106347656e+05
    6.9065280259e-02    1.0106342969e+05
    6.9075554609e-02    1.0106353906e+05
    6.9085493684e-02    1.0106362500e+05
    6.9095425308e-02    1.0106364844e+05
    6.9105356932e-02    1.0106322656e+05
    6.9115296006e-02    1.0106260156e+05
    6.9125570357e-02    1.0106263281e+05
    6.9135509431e-02    1.0106203125e+05
    6.9145441055e-02    1.0106193750e+05
    6.9155380130e-02    1.0106215625e+05
    6.9165311754e-02    1.0106221875e+05
    6.9175250828e-02    1.0106228906e+05
    6.9185525179e-02    1.0106221094e+05
    6.9195464253e-02    1.0106206250e+05
    6.9205403328e-02    1.0106164844e+05
    6.9215334952e-02    1.0106166406e+05
    6.9225274026e-02    1.0106177344e+05
    6.9235555828e-02    1.0106175781e+05
    6.9245487452e-02    1.0106122656e+05
    6.9255426526e-02    1.0106040625e+05
    6.9265365601e-02    1.0106037500e+05
    6.9275297225e-02    1.0106033594e+05
    6.9285236299e-02    1.0106025000e+05
    6.9295518100e-02    1.0105969531e+05
    6.9305449724e-02    1.0105877344e+05
    6.9315388799e-02    1.0105888281e+05
    6.9325327873e-02    1.0105875781e+05
    6.9335259497e-02    1.0105864844e+05
    6.9345541298e-02    1.0105871875e+05
    6.9355480373e-02    1.0105894531e+05
    6.9365411997e-02    1.0105903906e+05
    6.9375351071e-02    1.0105902344e+05
    6.9385290146e-02    1.0105897656e+05
    6.9395229220e-02    1.0105909375e+05
    6.9405503571e-02    1.0105903906e+05
    6.9415442646e-02    1.0105897656e+05
    6.9425381720e-02    1.0105885156e+05
    6.9435320795e-02    1.0105880469e+05
    6.9445259869e-02    1.0105857031e+05
    6.9455191493e-02    1.0105849219e+05
    6.9465473294e-02    1.0105825000e+05
    6.9475412369e-02    1.0105841406e+05
    6.9485351443e-02    1.0105843750e+05
    6.9495283067e-02    1.0105839844e+05
    6.9505222142e-02    1.0105821875e+05
    6.9515503943e-02    1.0105835156e+05
    6.9525443017e-02    1.0105828906e+05
    6.9535382092e-02    1.0105822656e+05
    6.9545313716e-02    1.0105827344e+05
    6.9555252790e-02    1.0105821094e+05
    6.9565191865e-02    1.0105818750e+05
    6.9575473666e-02    1.0105822656e+05
    6.9585412741e-02    1.0105821875e+05
    6.9595351815e-02    1.0105825000e+05
    6.9605290890e-02    1.0105822656e+05
    6.9615229964e-02    1.0105821875e+05
    6.9625169039e-02    1.0105821094e+05
    6.9635450840e-02    1.0105831250e+05
    6.9645389915e-02    1.0105839844e+05
    6.9655321538e-02    1.0105833594e+05
    6.9665260613e-02    1.0105836719e+05
    6.9675199687e-02    1.0105853906e+05
    6.9685481489e-02    1.0105855469e+05
    6.9695420563e-02    1.0105860156e+05
    6.9705359638e-02    1.0105860156e+05
    6.9715298712e-02    1.0105846875e+05
    6.9725237787e-02    1.0105834375e+05
    6.9735176861e-02    1.0105777344e+05
    6.9745458663e-02    1.0105788281e+05
    6.9755397737e-02    1.0105741406e+05
    6.9765336812e-02    1.0105612500e+05
    6.9775275886e-02    1.0105603125e+05
    6.9785214961e-02    1.0105615625e+05
    6.9795154035e-02    1.0105616406e+05
    6.9805435836e-02    1.0105616406e+05
    6.9815382361e-02    1.0105616406e+05
    6.9825321436e-02    1.0105622656e+05
    6.9835260510e-02    1.0105583594e+05
    6.9845199585e-02    1.0105475000e+05
    6.9855138659e-02    1.0105464844e+05
    6.9865420461e-02    1.0105425781e+05
    6.9875359535e-02    1.0105306250e+05
    6.9885298610e-02    1.0105334375e+05
    6.9895237684e-02    1.0105350000e+05
    6.9905176759e-02    1.0105358594e+05
    6.9915458560e-02    1.0105360156e+05
    6.9925405085e-02    1.0105366406e+05
    6.9935344160e-02    1.0105271875e+05
    6.9945283234e-02    1.0105283594e+05
    6.9955222309e-02    1.0105287500e+05
    6.9965161383e-02    1.0105287500e+05
    6.9975443184e-02    1.0105302344e+05
    6.9985382259e-02    1.0105258594e+05
    6.9995321333e-02    1.0105199219e+05
endcurve
