Curveplot
LS-DYNA keyword deck by LS-PrePost                          
Time
Pressure
Defined Connection
Pressure @ 10 #pts=7001
* Minval=     9.1266429688e+04 at time=         0.0343398936
* Maxval=     1.3545467188e+05 at time=         0.0206098408
    0.0000000000e+00    1.0119997656e+05
    9.9483804661e-06    1.0119997656e+05
    1.9993580281e-05    1.0119997656e+05
    2.9991337215e-05    1.0119997656e+05
    3.9972121158e-05    1.0119997656e+05
    4.9950773246e-05    1.0119997656e+05
    5.9993370087e-05    1.0119997656e+05
    6.9975096267e-05    1.0119997656e+05
    7.9978381109e-05    1.0119997656e+05
    8.9948996902e-05    1.0119997656e+05
    9.9943623354e-05    1.0119997656e+05
    1.0994826152e-04    1.0119997656e+05
    1.1995078239e-04    1.0119997656e+05
    1.2994052668e-04    1.0119997656e+05
    1.3998252689e-04    1.0119997656e+05
    1.4999171253e-04    1.0119997656e+05
    1.5995635476e-04    1.0119997656e+05
    1.6994576436e-04    1.0119997656e+05
    1.7995250528e-04    1.0119997656e+05
    1.8996889412e-04    1.0119997656e+05
    1.9998700009e-04    1.0119997656e+05
    2.0999861590e-04    1.0119987500e+05
    2.1999560704e-04    1.0119988281e+05
    2.2996972257e-04    1.0119988281e+05
    2.3991272610e-04    1.0120000000e+05
    2.4990833481e-04    1.0120002344e+05
    2.5995151373e-04    1.0119993750e+05
    2.6994047221e-04    1.0119975000e+05
    2.7995355777e-04    1.0119987500e+05
    2.8997971094e-04    1.0119986719e+05
    2.9991945485e-04    1.0119987500e+05
    3.0996589339e-04    1.0119997656e+05
    3.1992024742e-04    1.0120000000e+05
    3.2997969538e-04    1.0119980469e+05
    3.3994112164e-04    1.0119967969e+05
    3.4990292625e-04    1.0119967969e+05
    3.5996743827e-04    1.0119978125e+05
    3.6992528476e-04    1.0119983594e+05
    3.7998461630e-04    1.0119940625e+05
    3.8993224734e-04    1.0119885156e+05
    3.9998014108e-04    1.0119935156e+05
    4.0991045535e-04    1.0119912500e+05
    4.1993995546e-04    1.0119955469e+05
    4.2995819240e-04    1.0119978125e+05
    4.3996350723e-04    1.0119975781e+05
    4.4995380449e-04    1.0119957031e+05
    4.5992748346e-04    1.0119956250e+05
    4.6999883489e-04    1.0119946094e+05
    4.7993427143e-04    1.0119943750e+05
    4.8996572150e-04    1.0119952344e+05
    4.9997516908e-04    1.0119952344e+05
    5.0996057689e-04    1.0119953906e+05
    5.1991996588e-04    1.0119941406e+05
    5.2997464081e-04    1.0119906250e+05
    5.3987733554e-04    1.0119916406e+05
    5.4999912390e-04    1.0119882031e+05
    5.5996509036e-04    1.0119863281e+05
    5.6989747100e-04    1.0119875781e+05
    5.7992315851e-04    1.0119875781e+05
    5.8991368860e-04    1.0119875781e+05
    5.9999810765e-04    1.0119849219e+05
    6.0991250211e-04    1.0119865625e+05
    6.1991909752e-04    1.0119875000e+05
    6.2988395803e-04    1.0119891406e+05
    6.3994148513e-04    1.0119897656e+05
    6.4995518187e-04    1.0119858594e+05
    6.5992277814e-04    1.0119847656e+05
    6.6998222610e-04    1.0119853906e+05
    6.7999324529e-04    1.0119853906e+05
    6.8995356560e-04    1.0119891406e+05
    6.9986045128e-04    1.0119861719e+05
    7.0985709317e-04    1.0119864844e+05
    7.1994465543e-04    1.0119860156e+05
    7.2997657117e-04    1.0119850781e+05
    7.3995010462e-04    1.0119850000e+05
    7.4986234540e-04    1.0119853906e+05
    7.5986306183e-04    1.0119852344e+05
    7.6995335985e-04    1.0119867969e+05
    7.7997980407e-04    1.0119869531e+05
    7.8993954230e-04    1.0119869531e+05
    7.9998729052e-04    1.0119891406e+05
    8.0996524775e-04    1.0119891406e+05
    8.1987032900e-04    1.0119844531e+05
    8.2986149937e-04    1.0119871094e+05
    8.3994021406e-04    1.0119884375e+05
    8.4994250210e-04    1.0119909375e+05
    8.5986568592e-04    1.0119906250e+05
    8.6987396935e-04    1.0119921094e+05
    8.7996863294e-04    1.0119896094e+05
    8.8998035062e-04    1.0119861719e+05
    8.9990586275e-04    1.0119880469e+05
    9.0991519392e-04    1.0119899219e+05
    9.1983447783e-04    1.0119894531e+05
    9.2983682407e-04    1.0119887500e+05
    9.3992328038e-04    1.0119885156e+05
    9.4991567312e-04    1.0119928906e+05
    9.5999141922e-04    1.0119953906e+05
    9.6996943466e-04    1.0119985156e+05
    9.7984599415e-04    1.0120010156e+05
    9.8998867907e-04    1.0119999219e+05
    9.9984265398e-04    1.0120041406e+05
    1.0099647334e-03    1.0120055469e+05
    1.0199806420e-03    1.0120077344e+05
    1.0298871202e-03    1.0120078906e+05
    1.0398735758e-03    1.0120077344e+05
    1.0499405907e-03    1.0120064844e+05
    1.0598939843e-03    1.0120052344e+05
    1.0699266568e-03    1.0120061719e+05
    1.0798418662e-03    1.0120052344e+05
    1.0898358887e-03    1.0120013281e+05
    1.0999093065e-03    1.0120008594e+05
    1.1098603718e-03    1.0120015625e+05
    1.1198900174e-03    1.0120021094e+05
    1.1299996404e-03    1.0120021094e+05
    1.1399823707e-03    1.0120009375e+05
    1.1498330859e-03    1.0120015625e+05
    1.1599723948e-03    1.0120016406e+05
    1.1699802708e-03    1.0120021875e+05
    1.1798506603e-03    1.0120014844e+05
    1.1897982331e-03    1.0120002344e+05
    1.1998238042e-03    1.0119975000e+05
    1.2099291198e-03    1.0119953125e+05
    1.2198914774e-03    1.0119899219e+05
    1.2299316004e-03    1.0119858594e+05
    1.2398248073e-03    1.0119842969e+05
    1.2497951975e-03    1.0119849219e+05
    1.2598437024e-03    1.0119852344e+05
    1.2699713698e-03    1.0119853906e+05
    1.2799471151e-03    1.0119869531e+05
    1.2897651177e-03    1.0119864844e+05
    1.2998933671e-03    1.0119871875e+05
    1.3098634081e-03    1.0119889844e+05
    1.3199110981e-03    1.0119883594e+05
    1.3297955738e-03    1.0119896875e+05
    1.3397561852e-03    1.0119912500e+05
    1.3497956097e-03    1.0119921094e+05
    1.3599150116e-03    1.0119913281e+05
    1.3698631665e-03    1.0119908594e+05
    1.3798894361e-03    1.0119897656e+05
    1.3899926562e-03    1.0119899219e+05
    1.3999202056e-03    1.0119864844e+05
    1.4099251712e-03    1.0119861719e+05
    1.4197486453e-03    1.0119860156e+05
    1.4299093746e-03    1.0119871875e+05
    1.4398873318e-03    1.0119872656e+05
    1.4499423560e-03    1.0119868750e+05
    1.4598087873e-03    1.0119860156e+05
    1.4697521692e-03    1.0119858594e+05
    1.4797732001e-03    1.0119842969e+05
    1.4898723457e-03    1.0119841406e+05
    1.4997752151e-03    1.0119855469e+05
    1.5097561991e-03    1.0119871875e+05
    1.5198145993e-03    1.0119886719e+05
    1.5299526276e-03    1.0119896094e+05
    1.5398875112e-03    1.0119888281e+05
    1.5498996945e-03    1.0119868750e+05
    1.5599917388e-03    1.0119871875e+05
    1.5698722564e-03    1.0119856250e+05
    1.5798306558e-03    1.0119847656e+05
    1.5898670536e-03    1.0119850781e+05
    1.5999842435e-03    1.0119833594e+05
    1.6098814085e-03    1.0119802344e+05
    1.6198569210e-03    1.0119791406e+05
    1.6299117124e-03    1.0119777344e+05
    1.6397397267e-03    1.0119777344e+05
    1.6499555204e-03    1.0119766406e+05
    1.6599419760e-03    1.0119775781e+05
    1.6696930397e-03    1.0119792969e+05
    1.6798393335e-03    1.0119811719e+05
    1.6897476744e-03    1.0119842969e+05
    1.6997359926e-03    1.0119864844e+05
    1.7098051030e-03    1.0119894531e+05
    1.7199567519e-03    1.0119922656e+05
    1.7298616003e-03    1.0119953125e+05
    1.7398463096e-03    1.0119958594e+05
    1.7499133246e-03    1.0119972656e+05
    1.7597234109e-03    1.0119984375e+05
    1.7699559685e-03    1.0119996094e+05
    1.7799297348e-03    1.0119996094e+05
    1.7899861559e-03    1.0119999219e+05
    1.7997755203e-03    1.0119997656e+05
    1.8096452113e-03    1.0119992969e+05
    1.8199530896e-03    1.0119996094e+05
    1.8299903022e-03    1.0119982031e+05
    1.8397495151e-03    1.0119978906e+05
    1.8499556463e-03    1.0119966406e+05
    1.8598808674e-03    1.0119964844e+05
    1.8698900240e-03    1.0119966406e+05
    1.8799847458e-03    1.0119968750e+05
    1.8897883128e-03    1.0119971094e+05
    1.8996745348e-03    1.0119971875e+05
    1.9096453907e-03    1.0119993750e+05
    1.9197025103e-03    1.0120000000e+05
    1.9298477564e-03    1.0119997656e+05
    1.9396876451e-03    1.0119997656e+05
    1.9496126333e-03    1.0119985156e+05
    1.9596244674e-03    1.0119983594e+05
    1.9697253592e-03    1.0119961719e+05
    1.9799170550e-03    1.0119959375e+05
    1.9897883758e-03    1.0119935156e+05
    1.9997470081e-03    1.0119918750e+05
    2.0097955130e-03    1.0119912500e+05
    2.0199352875e-03    1.0119887500e+05
    2.0297404844e-03    1.0119871094e+05
    2.0396334585e-03    1.0119884375e+05
    2.0496093202e-03    1.0119875781e+05
    2.0596405957e-03    1.0119877344e+05
    2.0697158761e-03    1.0119875000e+05
    2.0798309706e-03    1.0119875781e+05
    2.0899875090e-03    1.0119868750e+05
    2.0997188985e-03    1.0119853906e+05
    2.1098928992e-03    1.0119842969e+05
    2.1196508314e-03    1.0119842969e+05
    2.1298860665e-03    1.0119861719e+05
    2.1396456286e-03    1.0119850000e+05
    2.1498810966e-03    1.0119843750e+05
    2.1596371662e-03    1.0119816406e+05
    2.1698563360e-03    1.0119810156e+05
    2.1796312649e-03    1.0119825781e+05
    2.1898385603e-03    1.0119831250e+05
    2.1996116266e-03    1.0119841406e+05
    2.2097944748e-03    1.0119840625e+05
    2.2199896630e-03    1.0119842969e+05
    2.2297408432e-03    1.0119852344e+05
    2.2399099544e-03    1.0119850000e+05
    2.2496480960e-03    1.0119838281e+05
    2.2598607466e-03    1.0119809375e+05
    2.2696573287e-03    1.0119800000e+05
    2.2798993159e-03    1.0119796875e+05
    2.2896388546e-03    1.0119783594e+05
    2.2997800261e-03    1.0119802344e+05
    2.3095712531e-03    1.0119794531e+05
    2.3197825067e-03    1.0119791406e+05
    2.3295776919e-03    1.0119775000e+05
    2.3398457561e-03    1.0119715625e+05
    2.3496942595e-03    1.0119715625e+05
    2.3595783859e-03    1.0119728125e+05
    2.3698851001e-03    1.0119733594e+05
    2.3797953036e-03    1.0119743750e+05
    2.3897076026e-03    1.0119752344e+05
    2.3996329401e-03    1.0119771094e+05
    2.4099929724e-03    1.0119774219e+05
    2.4199262261e-03    1.0119697656e+05
    2.4298618082e-03    1.0119715625e+05
    2.4397983216e-03    1.0119722656e+05
    2.4497094564e-03    1.0119733594e+05
    2.4595861323e-03    1.0119741406e+05
    2.4699091446e-03    1.0119758594e+05
    2.4797332007e-03    1.0119774219e+05
    2.4899772834e-03    1.0119772656e+05
    2.4997186847e-03    1.0119780469e+05
    2.5098470505e-03    1.0119787500e+05
    2.5199002121e-03    1.0119794531e+05
    2.5298784021e-03    1.0119791406e+05
    2.5397825520e-03    1.0119789844e+05
    2.5496135931e-03    1.0119787500e+05
    2.5597957429e-03    1.0119772656e+05
    2.5699008256e-03    1.0119762500e+05
    2.5799300056e-03    1.0119760156e+05
    2.5898844469e-03    1.0119764844e+05
    2.5997653138e-03    1.0119765625e+05
    2.6099802926e-03    1.0119762500e+05
    2.6197133120e-03    1.0119752344e+05
    2.6297764853e-03    1.0119739844e+05
    2.6397637557e-03    1.0119752344e+05
    2.6496758219e-03    1.0119753906e+05
    2.6599061675e-03    1.0119763281e+05
    2.6696682908e-03    1.0119757031e+05
    2.6797445025e-03    1.0119750781e+05
    2.6897434145e-03    1.0119731250e+05
    2.6996661909e-03    1.0119728906e+05
    2.7098907158e-03    1.0119722656e+05
    2.7196609881e-03    1.0119708594e+05
    2.7297285851e-03    1.0119711719e+05
    2.7397177182e-03    1.0119702344e+05
    2.7499948628e-03    1.0119696094e+05
    2.7598268352e-03    1.0119703906e+05
    2.7699426282e-03    1.0119713281e+05
    2.7799771633e-03    1.0119697656e+05
    2.7899320703e-03    1.0119691406e+05
    2.7998071164e-03    1.0119552344e+05
    2.8099527117e-03    1.0119559375e+05
    2.8196685016e-03    1.0119569531e+05
    2.8299929108e-03    1.0119487500e+05
    2.8398891445e-03    1.0119521875e+05
    2.8497038875e-03    1.0119531250e+05
    2.8597714845e-03    1.0119533594e+05
    2.8697527014e-03    1.0119521875e+05
    2.8799762949e-03    1.0119508594e+05
    2.8897835873e-03    1.0119521094e+05
    2.8998283669e-03    1.0119527344e+05
    2.9097832739e-03    1.0119516406e+05
    2.9199651908e-03    1.0119516406e+05
    2.9297384899e-03    1.0119531250e+05
    2.9397336766e-03    1.0119500781e+05
    2.9499426018e-03    1.0119410156e+05
    2.9597471002e-03    1.0119414844e+05
    2.9697602149e-03    1.0119400000e+05
    2.9799730983e-03    1.0119399219e+05
    2.9897852801e-03    1.0119403906e+05
    2.9997918755e-03    1.0119415625e+05
    3.0099833384e-03    1.0119419531e+05
    3.0197780579e-03    1.0119428125e+05
    3.0297518242e-03    1.0119438281e+05
    3.0398950912e-03    1.0119466406e+05
    3.0499212444e-03    1.0119465625e+05
    3.0598302837e-03    1.0119490625e+05
    3.0698920600e-03    1.0119485156e+05
    3.0798292719e-03    1.0119471094e+05
    3.0899050180e-03    1.0119452344e+05
    3.0998487491e-03    1.0119325000e+05
    3.1099151820e-03    1.0119328906e+05
    3.1198409852e-03    1.0119340625e+05
    3.1298734248e-03    1.0119349219e+05
    3.1400003936e-03    1.0119363281e+05
    3.1499671750e-03    1.0119371875e+05
    3.1597721390e-03    1.0119402344e+05
    3.1698795501e-03    1.0119421094e+05
    3.1798044220e-03    1.0119433594e+05
    3.1899919268e-03    1.0119435156e+05
    3.1999724451e-03    1.0119439844e+05
    3.2099562231e-03    1.0119446094e+05
    3.2199234702e-03    1.0119446094e+05
    3.2298527658e-03    1.0119446875e+05
    3.2399187330e-03    1.0119446875e+05
    3.2498841174e-03    1.0119452344e+05
    3.2599042170e-03    1.0119439844e+05
    3.2699226867e-03    1.0119453906e+05
    3.2798734028e-03    1.0119441406e+05
    3.2900029328e-03    1.0119447656e+05
    3.2999995165e-03    1.0119453906e+05
    3.3099653665e-03    1.0119466406e+05
    3.3199251629e-03    1.0119468750e+05
    3.3299291972e-03    1.0119475000e+05
    3.3399364911e-03    1.0119443750e+05
    3.3499025740e-03    1.0119397656e+05
    3.3599163871e-03    1.0119415625e+05
    3.3698980696e-03    1.0119440625e+05
    3.3798632212e-03    1.0119464844e+05
    3.3899613190e-03    1.0119438281e+05
    3.3999239095e-03    1.0119430469e+05
    3.4098525066e-03    1.0119422656e+05
    3.4198861104e-03    1.0119431250e+05
    3.4299604595e-03    1.0119417969e+05
    3.4399675205e-03    1.0119358594e+05
    3.4498765599e-03    1.0119325000e+05
    3.4599027131e-03    1.0119332031e+05
    3.4699155949e-03    1.0119346094e+05
    3.4799834248e-03    1.0119363281e+05
    3.4899939783e-03    1.0119399219e+05
    3.4998853225e-03    1.0119405469e+05
    3.5098872613e-03    1.0119372656e+05
    3.5199560225e-03    1.0119371094e+05
    3.5299267620e-03    1.0119378125e+05
    3.5399633925e-03    1.0119357031e+05
    3.5498780198e-03    1.0119375000e+05
    3.5598541144e-03    1.0119374219e+05
    3.5698842257e-03    1.0119372656e+05
    3.5799962934e-03    1.0119383594e+05
    3.5899369977e-03    1.0119392969e+05
    3.5999696702e-03    1.0119412500e+05
    3.6098246928e-03    1.0119416406e+05
    3.6199535243e-03    1.0119407031e+05
    3.6299058702e-03    1.0119394531e+05
    3.6399306264e-03    1.0119416406e+05
    3.6500019487e-03    1.0119408594e+05
    3.6598828156e-03    1.0119396094e+05
    3.6698374897e-03    1.0119392969e+05
    3.6798112560e-03    1.0119400781e+05
    3.6898446269e-03    1.0119411719e+05
    3.6999129225e-03    1.0119414844e+05
    3.7097951863e-03    1.0119421094e+05
    3.7199503276e-03    1.0119410156e+05
    3.7299138494e-03    1.0119424219e+05
    3.7399337161e-03    1.0119436719e+05
    3.7499694154e-03    1.0119446094e+05
    3.7598300260e-03    1.0119450000e+05
    3.7699546665e-03    1.0119466406e+05
    3.7798655685e-03    1.0119460156e+05
    3.7898495793e-03    1.0119446094e+05
    3.7998314947e-03    1.0119447656e+05
    3.8098616060e-03    1.0119447656e+05
    3.8199382834e-03    1.0119455469e+05
    3.8299979642e-03    1.0119468750e+05
    3.8399314508e-03    1.0119465625e+05
    3.8498251233e-03    1.0119466406e+05
    3.8600098342e-03    1.0119449219e+05
    3.8700087462e-03    1.0119435156e+05
    3.8799699396e-03    1.0119439844e+05
    3.8898163475e-03    1.0119414844e+05
    3.8998513483e-03    1.0119427344e+05
    3.9099249989e-03    1.0119414844e+05
    3.9198375307e-03    1.0119400781e+05
    3.9299577475e-03    1.0119402344e+05
    3.9399033412e-03    1.0119397656e+05
    3.9498638362e-03    1.0119397656e+05
    3.9598373696e-03    1.0119406250e+05
    3.9698700421e-03    1.0119418750e+05
    3.9798994549e-03    1.0119427344e+05
    3.9899600670e-03    1.0119417969e+05
    3.9998157881e-03    1.0119421094e+05
    4.0099164471e-03    1.0119402344e+05
    4.0198108181e-03    1.0119397656e+05
    4.0299813263e-03    1.0119403125e+05
    4.0399217978e-03    1.0119396875e+05
    4.0498767048e-03    1.0119396094e+05
    4.0598427877e-03    1.0119408594e+05
    4.0698284283e-03    1.0119425000e+05
    4.0798308328e-03    1.0119422656e+05
    4.0898500010e-03    1.0119431250e+05
    4.0998854674e-03    1.0119431250e+05
    4.1099321097e-03    1.0119403906e+05
    4.1199913248e-03    1.0119411719e+05
    4.1298214346e-03    1.0119421094e+05
    4.1399006732e-03    1.0119419531e+05
    4.1499729268e-03    1.0119408594e+05
    4.1597993113e-03    1.0119409375e+05
    4.1698827408e-03    1.0119408594e+05
    4.1799736209e-03    1.0119422656e+05
    4.1898204945e-03    1.0119441406e+05
    4.1999123059e-03    1.0119447656e+05
    4.2100050487e-03    1.0119446094e+05
    4.2198523879e-03    1.0119450000e+05
    4.2299488559e-03    1.0119483594e+05
    4.2397975922e-03    1.0119492969e+05
    4.2498912662e-03    1.0119489844e+05
    4.2599844746e-03    1.0119486719e+05
    4.2698313482e-03    1.0119497656e+05
    4.2799250223e-03    1.0119510156e+05
    4.2897718959e-03    1.0119527344e+05
    4.2998637073e-03    1.0119535156e+05
    4.3099550530e-03    1.0119519531e+05
    4.3198005296e-03    1.0119509375e+05
    4.3298914097e-03    1.0119507031e+05
    4.3399813585e-03    1.0119500000e+05
    4.3498221785e-03    1.0119486719e+05
    4.3599079363e-03    1.0119513281e+05
    4.3699964881e-03    1.0119535156e+05
    4.3798391707e-03    1.0119539844e+05
    4.3899286538e-03    1.0119557031e+05
    4.3997690082e-03    1.0119571875e+05
    4.4098575599e-03    1.0119564844e+05
    4.4199563563e-03    1.0119553906e+05
    4.4298139401e-03    1.0119546875e+05
    4.4399066828e-03    1.0119528125e+05
    4.4500092044e-03    1.0119517969e+05
    4.4598802924e-03    1.0119490625e+05
    4.4700093567e-03    1.0119513281e+05
    4.4798972085e-03    1.0119511719e+05
    4.4897915795e-03    1.0119514844e+05
    4.4999402016e-03    1.0119516406e+05
    4.5098573901e-03    1.0119522656e+05
    4.5197801664e-03    1.0119533594e+05
    4.5299651101e-03    1.0119534375e+05
    4.5398902148e-03    1.0119521094e+05
    4.5498316176e-03    1.0119510156e+05
    4.5597925782e-03    1.0119500781e+05
    4.5697796158e-03    1.0119499219e+05
    4.5797699131e-03    1.0119499219e+05
    4.5900018886e-03    1.0119503906e+05
    4.5999870636e-03    1.0119496875e+05
    4.6099978499e-03    1.0119500781e+05
    4.6200049110e-03    1.0119494531e+05
    4.6300138347e-03    1.0119491406e+05
    4.6397866681e-03    1.0119489844e+05
    4.6498323791e-03    1.0119475781e+05
    4.6598841436e-03    1.0119466406e+05
    4.6699428931e-03    1.0119460156e+05
    4.6799993142e-03    1.0119450781e+05
    4.6898038127e-03    1.0119444531e+05
    4.6998625621e-03    1.0119439844e+05
    4.7099441290e-03    1.0119443750e+05
    4.7197816893e-03    1.0119437500e+05
    4.7298581339e-03    1.0119453125e+05
    4.7399452887e-03    1.0119471094e+05
    4.7498131171e-03    1.0119478906e+05
    4.7599412501e-03    1.0119471094e+05
    4.7698118724e-03    1.0119475781e+05
    4.7799283639e-03    1.0119466406e+05
    4.7898092307e-03    1.0119475781e+05
    4.7999490052e-03    1.0119464844e+05
    4.8098433763e-03    1.0119468750e+05
    4.8199887387e-03    1.0119447656e+05
    4.8298793845e-03    1.0119452344e+05
    4.8397742212e-03    1.0119453125e+05
    4.8499382101e-03    1.0119435156e+05
    4.8598512076e-03    1.0119447656e+05
    4.8700142652e-03    1.0119453906e+05
    4.8799188808e-03    1.0119460156e+05
    4.8898295499e-03    1.0119472656e+05
    4.9000014551e-03    1.0119461719e+05
    4.9099205062e-03    1.0119465625e+05
    4.9198376946e-03    1.0119471094e+05
    4.9300086685e-03    1.0119452344e+05
    4.9399267882e-03    1.0119450781e+05
    4.9498472363e-03    1.0119449219e+05
    4.9597662874e-03    1.0119446094e+05
    4.9699372612e-03    1.0119446094e+05
    4.9798530526e-03    1.0119410156e+05
    4.9897693098e-03    1.0119347656e+05
    4.9999440089e-03    1.0119385156e+05
    5.0098625943e-03    1.0119397656e+05
    5.0197807141e-03    1.0119383594e+05
    5.0299516879e-03    1.0119190625e+05
    5.0398716703e-03    1.0119128125e+05
    5.0497935154e-03    1.0119162500e+05
    5.0599672832e-03    1.0119185156e+05
    5.0698858686e-03    1.0119183594e+05
    5.0798035227e-03    1.0119196875e+05
    5.0899782218e-03    1.0119200781e+05
    5.0999000669e-03    1.0119202344e+05
    5.1098209806e-03    1.0119203125e+05
    5.1199952140e-03    1.0119188281e+05
    5.1299156621e-03    1.0119196875e+05
    5.1398365758e-03    1.0119046094e+05
    5.1500103436e-03    1.0118989844e+05
    5.1599275321e-03    1.0118961719e+05
    5.1698451862e-03    1.0118981250e+05
    5.1797763444e-03    1.0118938281e+05
    5.1899603568e-03    1.0118687500e+05
    5.1998859271e-03    1.0118608594e+05
    5.2098096348e-03    1.0118553906e+05
    5.2199843340e-03    1.0118533594e+05
    5.2299113013e-03    1.0118553125e+05
    5.2398541011e-03    1.0118578125e+05
    5.2498024888e-03    1.0118590625e+05
    5.2600046620e-03    1.0118627344e+05
    5.2699502558e-03    1.0118633594e+05
    5.2798935212e-03    1.0118516406e+05
    5.2898339927e-03    1.0118484375e+05
    5.2997735329e-03    1.0118493750e+05
    5.3099663928e-03    1.0118503906e+05
    5.3199077956e-03    1.0118534375e+05
    5.3298594430e-03    1.0118559375e+05
    5.3398120217e-03    1.0118567969e+05
    5.3500188515e-03    1.0118593750e+05
    5.3599718958e-03    1.0118608594e+05
    5.3699291311e-03    1.0118641406e+05
    5.3798835725e-03    1.0118646875e+05
    5.3898366168e-03    1.0118685156e+05
    5.3997882642e-03    1.0118681250e+05
    5.4099960253e-03    1.0118703906e+05
    5.4199551232e-03    1.0118708594e+05
    5.4299156182e-03    1.0118634375e+05
    5.4398747161e-03    1.0118596875e+05
    5.4498324171e-03    1.0118602344e+05
    5.4597938433e-03    1.0118621875e+05
    5.4700165056e-03    1.0118624219e+05
    5.4799816571e-03    1.0118608594e+05
    5.4899454117e-03    1.0118622656e+05
    5.4999077693e-03    1.0118634375e+05
    5.5098724551e-03    1.0118639844e+05
    5.5198445916e-03    1.0118650781e+05
    5.5298190564e-03    1.0118650000e+05
    5.5397925898e-03    1.0118671094e+05
    5.5497684516e-03    1.0118677344e+05
    5.5599999614e-03    1.0118692969e+05
    5.5699720979e-03    1.0118702344e+05
    5.5799423717e-03    1.0118702344e+05
    5.5899117142e-03    1.0118716406e+05
    5.5998810567e-03    1.0118728125e+05
    5.6098597124e-03    1.0118725000e+05
    5.6198467501e-03    1.0118750781e+05
    5.6298328564e-03    1.0118755469e+05
    5.6398184970e-03    1.0118774219e+05
    5.6498069316e-03    1.0118772656e+05
    5.6597958319e-03    1.0118759375e+05
    5.6697833352e-03    1.0118735156e+05
    5.6797689758e-03    1.0118728125e+05
    5.6900102645e-03    1.0118747656e+05
    5.7000033557e-03    1.0118771094e+05
    5.7100011036e-03    1.0118755469e+05
    5.7199974544e-03    1.0118453125e+05
    5.7299924083e-03    1.0118408594e+05
    5.7399873622e-03    1.0118441406e+05
    5.7499809191e-03    1.0118441406e+05
    5.7599740103e-03    1.0118406250e+05
    5.7699661702e-03    1.0118410156e+05
    5.7799699716e-03    1.0118433594e+05
    5.7899849489e-03    1.0118450781e+05
    5.7999966666e-03    1.0118456250e+05
    5.8100055903e-03    1.0118493750e+05
    5.8200131170e-03    1.0118507031e+05
    5.8300225064e-03    1.0118378906e+05
    5.8397855610e-03    1.0118372656e+05
    5.8498070575e-03    1.0118387500e+05
    5.8598271571e-03    1.0118389844e+05
    5.8698458597e-03    1.0118413281e+05
    5.8798743412e-03    1.0118415625e+05
    5.8899112046e-03    1.0118435156e+05
    5.8999448083e-03    1.0118467969e+05
    5.9099770151e-03    1.0118496875e+05
    5.9200073592e-03    1.0118528906e+05
    5.9297895059e-03    1.0118558594e+05
    5.9398375452e-03    1.0118571875e+05
    5.9498841874e-03    1.0118594531e+05
    5.9599294327e-03    1.0118611719e+05
    5.9699760750e-03    1.0118615625e+05
    5.9797749855e-03    1.0118602344e+05
    5.9898328036e-03    1.0118611719e+05
    5.9998887591e-03    1.0118615625e+05
    6.0099442489e-03    1.0118603906e+05
    6.0200025328e-03    1.0118581250e+05
    6.0298098251e-03    1.0118556250e+05
    6.0398741625e-03    1.0118552344e+05
    6.0499375686e-03    1.0118561719e+05
    6.0600014403e-03    1.0118564844e+05
    6.0698119923e-03    1.0118563281e+05
    6.0798823833e-03    1.0118574219e+05
    6.0899513774e-03    1.0118572656e+05
    6.1000189744e-03    1.0118575000e+05
    6.1098271981e-03    1.0118603906e+05
    6.1198980547e-03    1.0118596094e+05
    6.1299777590e-03    1.0118622656e+05
    6.1397985555e-03    1.0118633594e+05
    6.1498773284e-03    1.0118650000e+05
    6.1599551700e-03    1.0118649219e+05
    6.1697778292e-03    1.0118669531e+05
    6.1798584647e-03    1.0118667969e+05
    6.1899386346e-03    1.0118681250e+05
    6.2000183389e-03    1.0118689844e+05
    6.2098475173e-03    1.0118689844e+05
    6.2199383974e-03    1.0118700000e+05
    6.2300269492e-03    1.0118706250e+05
    6.2398561276e-03    1.0118710156e+05
    6.2499428168e-03    1.0118727344e+05
    6.2597738579e-03    1.0118735156e+05
    6.2698652036e-03    1.0118733594e+05
    6.2799560837e-03    1.0118740625e+05
    6.2897866592e-03    1.0118742969e+05
    6.2998849899e-03    1.0118749219e+05
    6.3099907711e-03    1.0118753906e+05
    6.3198343851e-03    1.0118756250e+05
    6.3299355097e-03    1.0118764844e+05
    6.3397767954e-03    1.0118771875e+05
    6.3498802483e-03    1.0118788281e+05
    6.3599934801e-03    1.0118793750e+05
    6.3698487356e-03    1.0118808594e+05
    6.3799628988e-03    1.0118810156e+05
    6.3898176886e-03    1.0118821094e+05
    6.3999379054e-03    1.0118836719e+05
    6.4098024741e-03    1.0118847656e+05
    6.4199245535e-03    1.0118853125e+05
    6.4297853969e-03    1.0118860156e+05
    6.4399051480e-03    1.0118852344e+05
    6.4497715794e-03    1.0118852344e+05
    6.4599006437e-03    1.0118866406e+05
    6.4700278454e-03    1.0118866406e+05
    6.4798952080e-03    1.0118858594e+05
    6.4900228754e-03    1.0118874219e+05
    6.4999000169e-03    1.0118866406e+05
    6.5097799525e-03    1.0118869531e+05
    6.5199178644e-03    1.0118866406e+05
    6.5297950059e-03    1.0118860156e+05
    6.5399329178e-03    1.0118858594e+05
    6.5498170443e-03    1.0118860156e+05
    6.5599614754e-03    1.0118871094e+05
    6.5698446706e-03    1.0118878125e+05
    6.5799877048e-03    1.0118872656e+05
    6.5898750909e-03    1.0118874219e+05
    6.6000316292e-03    1.0118880469e+05
    6.6099246033e-03    1.0118893750e+05
    6.6198161803e-03    1.0118903906e+05
    6.6299661994e-03    1.0118914844e+05
    6.6398605704e-03    1.0118912500e+05
    6.6500296816e-03    1.0118928125e+05
    6.6599422134e-03    1.0118924219e+05
    6.6698533483e-03    1.0118917969e+05
    6.6800247878e-03    1.0118930469e+05
    6.6899349913e-03    1.0118936719e+05
    6.6998489201e-03    1.0118935156e+05
    6.7100231536e-03    1.0118938281e+05
    6.7199366167e-03    1.0118940625e+05
    6.7298500799e-03    1.0118930469e+05
    6.7400308326e-03    1.0118950000e+05
    6.7499484867e-03    1.0118955469e+05
    6.7598638125e-03    1.0118964844e+05
    6.7697791383e-03    1.0118975781e+05
    6.7799547687e-03    1.0118985156e+05
    6.7898812704e-03    1.0118987500e+05
    6.7998110317e-03    1.0118996094e+05
    6.8100001663e-03    1.0119003906e+05
    6.8199275993e-03    1.0118993750e+05
    6.8298587576e-03    1.0118982031e+05
    6.8398006260e-03    1.0118916406e+05
    6.8500032648e-03    1.0118922656e+05
    6.8599418737e-03    1.0118916406e+05
    6.8698795512e-03    1.0118908594e+05
    6.8798181601e-03    1.0118908594e+05
    6.8900249898e-03    1.0118896094e+05
    6.8999710493e-03    1.0118910156e+05
    6.9099157117e-03    1.0118896094e+05
    6.9198599085e-03    1.0118896094e+05
    6.9298110902e-03    1.0118891406e+05
    6.9397734478e-03    1.0118866406e+05
    6.9499975070e-03    1.0118878125e+05
    6.9599570706e-03    1.0118867969e+05
    6.9699161686e-03    1.0118866406e+05
    6.9798757322e-03    1.0118866406e+05
    6.9898422807e-03    1.0118872656e+05
    6.9998088293e-03    1.0118877344e+05
    7.0097735152e-03    1.0118871875e+05
    7.0199994370e-03    1.0118897656e+05
    7.0299659856e-03    1.0118912500e+05
    7.0399460383e-03    1.0118922656e+05
    7.0499293506e-03    1.0118933594e+05
    7.0599094033e-03    1.0118941406e+05
    7.0698894560e-03    1.0118942969e+05
    7.0798681118e-03    1.0118947656e+05
    7.0898551494e-03    1.0118958594e+05
    7.0998449810e-03    1.0118962500e+05
    7.1098329499e-03    1.0118964844e+05
    7.1198199876e-03    1.0118990625e+05
    7.1298098192e-03    1.0118982031e+05
    7.1398103610e-03    1.0118846875e+05
    7.1498113684e-03    1.0118546094e+05
    7.1598095819e-03    1.0118530469e+05
    7.1698068641e-03    1.0118553906e+05
    7.1798046120e-03    1.0118550000e+05
    7.1898093447e-03    1.0118550000e+05
    7.1998201311e-03    1.0118562500e+05
    7.2098295204e-03    1.0118555469e+05
    7.2198370472e-03    1.0118367969e+05
    7.2298445739e-03    1.0118162500e+05
    7.2398539633e-03    1.0118189844e+05
    7.2498675436e-03    1.0118202344e+05
    7.2598811239e-03    1.0118233594e+05
    7.2698937729e-03    1.0118247656e+05
    7.2799068876e-03    1.0118283594e+05
    7.2899269871e-03    1.0118300000e+05
    7.2999475524e-03    1.0118336719e+05
    7.3099662550e-03    1.0118353125e+05
    7.3199840263e-03    1.0118385156e+05
    7.3300017975e-03    1.0118406250e+05
    7.3400232941e-03    1.0118415625e+05
    7.3497802950e-03    1.0118400781e+05
    7.3597994633e-03    1.0118400000e+05
    7.3698177002e-03    1.0118403906e+05
    7.3798364028e-03    1.0118387500e+05
    7.3898667470e-03    1.0118094531e+05
    7.3999091983e-03    1.0117992969e+05
    7.4099511839e-03    1.0118003906e+05
    7.4199917726e-03    1.0118015625e+05
    7.4300323613e-03    1.0118014844e+05
    7.4398084544e-03    1.0117903906e+05
    7.4498495087e-03    1.0117892969e+05
    7.4598891661e-03    1.0117897656e+05
    7.4699274264e-03    1.0117905469e+05
    7.4799647555e-03    1.0117935156e+05
    7.4900048785e-03    1.0117939844e+05
    7.4997884221e-03    1.0117942969e+05
    7.5098392554e-03    1.0117949219e+05
    7.5198882259e-03    1.0117959375e+05
    7.5299362652e-03    1.0117958594e+05
    7.5399843045e-03    1.0117971875e+05
    7.5500388630e-03    1.0117978906e+05
    7.5598363765e-03    1.0117996875e+05
    7.5698983856e-03    1.0118019531e+05
    7.5799599290e-03    1.0118027344e+05
    7.5900210068e-03    1.0118046094e+05
    7.5998180546e-03    1.0118069531e+05
    7.6098786667e-03    1.0118097656e+05
    7.6199374162e-03    1.0118113281e+05
    7.6299943030e-03    1.0118122656e+05
    7.6397862285e-03    1.0118133594e+05
    7.6498440467e-03    1.0118137500e+05
    7.6599111781e-03    1.0118147656e+05
    7.6699862257e-03    1.0118157031e+05
    7.6797963120e-03    1.0118171875e+05
    7.6898708940e-03    1.0118142969e+05
    7.6999459416e-03    1.0118138281e+05
    7.7100228518e-03    1.0118128906e+05
    7.7198334038e-03    1.0118114844e+05
    7.7299075201e-03    1.0118130469e+05
    7.7399797738e-03    1.0118127344e+05
    7.7497870661e-03    1.0118141406e+05
    7.7598625794e-03    1.0118124219e+05
    7.7699464746e-03    1.0117972656e+05
    7.7800313011e-03    1.0117997656e+05
    7.7898497693e-03    1.0118015625e+05
    7.7999327332e-03    1.0117999219e+05
    7.8100156970e-03    1.0118011719e+05
    7.8198341653e-03    1.0118011719e+05
    7.8299194574e-03    1.0118019531e+05
    7.8400038183e-03    1.0118035156e+05
    7.8498236835e-03    1.0118030469e+05
    7.8599099070e-03    1.0118042969e+05
    7.8699970618e-03    1.0118039844e+05
    7.8798169270e-03    1.0118046094e+05
    7.8899012879e-03    1.0118037500e+05
    7.8999847174e-03    1.0118030469e+05
    7.9098027200e-03    1.0118036719e+05
    7.9198889434e-03    1.0118046875e+05
    7.9299779609e-03    1.0118053906e+05
    7.9398006201e-03    1.0118066406e+05
    7.9498887062e-03    1.0118071094e+05
    7.9599767923e-03    1.0118085156e+05
    7.9698003829e-03    1.0118085156e+05
    7.9798921943e-03    1.0118092969e+05
    7.9899840057e-03    1.0118096875e+05
    7.9998085275e-03    1.0118106250e+05
    8.0098984763e-03    1.0118134375e+05
    8.0199874938e-03    1.0118142969e+05
    8.0298129469e-03    1.0118150000e+05
    8.0399038270e-03    1.0118171094e+05
    8.0499947071e-03    1.0118200000e+05
    8.0598192289e-03    1.0118219531e+05
    8.0699091777e-03    1.0118239844e+05
    8.0800009891e-03    1.0118259375e+05
    8.0898264423e-03    1.0118280469e+05
    8.0999163911e-03    1.0118296094e+05
    8.1100044772e-03    1.0118296094e+05
    8.1198262051e-03    1.0118310156e+05
    8.1299133599e-03    1.0118309375e+05
    8.1400079653e-03    1.0118315625e+05
    8.1498436630e-03    1.0118281250e+05
    8.1599457189e-03    1.0117944531e+05
    8.1697823480e-03    1.0117694531e+05
    8.1798844039e-03    1.0117702344e+05
    8.1899873912e-03    1.0117721094e+05
    8.1998230889e-03    1.0117736719e+05
    8.2099232823e-03    1.0117760156e+05
    8.2200216129e-03    1.0117766406e+05
    8.2298526540e-03    1.0117790625e+05
    8.2399491221e-03    1.0117810156e+05
    8.2497876137e-03    1.0117808594e+05
    8.2599017769e-03    1.0117683594e+05
    8.2700168714e-03    1.0117694531e+05
    8.2798646763e-03    1.0117747656e+05
    8.2899779081e-03    1.0117760156e+05
    8.2998266444e-03    1.0117802344e+05
    8.3099417388e-03    1.0117827344e+05
    8.3197886124e-03    1.0117850000e+05
    8.3298999816e-03    1.0117858594e+05
    8.3400104195e-03    1.0117864844e+05
    8.3498544991e-03    1.0117885156e+05
    8.3599677309e-03    1.0117891406e+05
    8.3698211238e-03    1.0117912500e+05
    8.3799399436e-03    1.0117914844e+05
    8.3897905424e-03    1.0117921094e+05
    8.3999074996e-03    1.0117942969e+05
    8.4097571671e-03    1.0117946094e+05
    8.4198778495e-03    1.0117957031e+05
    8.4300022572e-03    1.0117971094e+05
    8.4398612380e-03    1.0117964844e+05
    8.4499865770e-03    1.0117971094e+05
    8.4598455578e-03    1.0117963281e+05
    8.4699708968e-03    1.0117956250e+05
    8.4798289463e-03    1.0117961719e+05
    8.4899514914e-03    1.0117962500e+05
    8.4998058155e-03    1.0117956250e+05
    8.5099255666e-03    1.0117950781e+05
    8.5197789595e-03    1.0117972656e+05
    8.5299005732e-03    1.0117971094e+05
    8.5397586226e-03    1.0117956250e+05
    8.5498811677e-03    1.0117933594e+05
    8.5600037128e-03    1.0117925000e+05
    8.5698598996e-03    1.0117919531e+05
    8.5799815133e-03    1.0117928906e+05
    8.5898377001e-03    1.0117878906e+05
    8.5999593139e-03    1.0117614844e+05
    8.6098127067e-03    1.0117388281e+05
    8.6199305952e-03    1.0117392969e+05
    8.6297830567e-03    1.0117427344e+05
    8.6399018764e-03    1.0117439844e+05
    8.6497571319e-03    1.0117452344e+05
    8.6598796770e-03    1.0117467969e+05
    8.6700022221e-03    1.0117466406e+05
    8.6798574775e-03    1.0117471094e+05
    8.6899781600e-03    1.0117487500e+05
    8.6998334154e-03    1.0117481250e+05
    8.7099531665e-03    1.0117489844e+05
    8.7198056281e-03    1.0117492969e+05
    8.7299225852e-03    1.0117531250e+05
    8.7397713214e-03    1.0117550000e+05
    8.7498864159e-03    1.0117583594e+05
    8.7600024417e-03    1.0117600000e+05
    8.7698595598e-03    1.0117627344e+05
    8.7799932808e-03    1.0117634375e+05
    8.7898606434e-03    1.0117662500e+05
    8.7999943644e-03    1.0117689844e+05
    8.8098598644e-03    1.0117717969e+05
    8.8199907914e-03    1.0117730469e+05
    8.8298553601e-03    1.0117731250e+05
    8.8399853557e-03    1.0117760156e+05
    8.8498471305e-03    1.0117780469e+05
    8.8599743322e-03    1.0117802344e+05
    8.8698342443e-03    1.0117808594e+05
    8.8799605146e-03    1.0117811719e+05
    8.8898222893e-03    1.0117828906e+05
    8.8999569416e-03    1.0117838281e+05
    8.9098270983e-03    1.0117852344e+05
    8.9199636132e-03    1.0117855469e+05
    8.9298328385e-03    1.0117858594e+05
    8.9399674907e-03    1.0117864844e+05
    8.9498357847e-03    1.0117853125e+05
    8.9599685743e-03    1.0117861719e+05
    8.9698340744e-03    1.0117869531e+05
    8.9799640700e-03    1.0117867969e+05
    8.9898267761e-03    1.0117862500e+05
    8.9999549091e-03    1.0117869531e+05
    9.0098166838e-03    1.0117874219e+05
    9.0199559927e-03    1.0117868750e+05
    9.0298429132e-03    1.0117886719e+05
    9.0397279710e-03    1.0117883594e+05
    9.0498784557e-03    1.0117913281e+05
    9.0597616509e-03    1.0117933594e+05
    9.0699112043e-03    1.0117946094e+05
    9.0797916055e-03    1.0117958594e+05
    9.0899448842e-03    1.0117982031e+05
    9.0998448431e-03    1.0118003906e+05
    9.1097475961e-03    1.0118028125e+05
    9.1199167073e-03    1.0118027344e+05
    9.1298166662e-03    1.0118035156e+05
    9.1399848461e-03    1.0118028125e+05
    9.1498838738e-03    1.0117989844e+05
    9.1597819701e-03    1.0117953906e+05
    9.1699464247e-03    1.0117953906e+05
    9.1798426583e-03    1.0117950000e+05
    9.1897379607e-03    1.0117968750e+05
    9.1999005526e-03    1.0117980469e+05
    9.2097949237e-03    1.0117989844e+05
    9.2199575156e-03    1.0118006250e+05
    9.2298500240e-03    1.0118003125e+05
    9.2397416010e-03    1.0118017969e+05
    9.2499004677e-03    1.0118010156e+05
    9.2597929761e-03    1.0118010156e+05
    9.2699527740e-03    1.0117996094e+05
    9.2798555270e-03    1.0117997656e+05
    9.2897666618e-03    1.0118000781e+05
    9.2999450862e-03    1.0118022656e+05
    9.3098543584e-03    1.0118003906e+05
    9.3197626993e-03    1.0118003906e+05
    9.3299401924e-03    1.0118014844e+05
    9.3398503959e-03    1.0118018750e+05
    9.3497615308e-03    1.0117913281e+05
    9.3599408865e-03    1.0117614844e+05
    9.3698529527e-03    1.0117466406e+05
    9.3797640875e-03    1.0117471094e+05
    9.3899425119e-03    1.0117477344e+05
    9.3998564407e-03    1.0117383594e+05
    9.4097703695e-03    1.0117359375e+05
    9.4199515879e-03    1.0117372656e+05
    9.4298673794e-03    1.0117389844e+05
    9.4398409128e-03    1.0117413281e+05
    9.4498759136e-03    1.0117422656e+05
    9.4597106799e-03    1.0117427344e+05
    9.4698537141e-03    1.0117402344e+05
    9.4797275960e-03    1.0117411719e+05
    9.4898929819e-03    1.0117422656e+05
    9.4998106360e-03    1.0117425781e+05
    9.5097301528e-03    1.0117406250e+05
    9.5199355856e-03    1.0117414844e+05
    9.5299351960e-03    1.0117411719e+05
    9.5399571583e-03    1.0117425781e+05
    9.5497369766e-03    1.0117410156e+05
    9.5597924665e-03    1.0117422656e+05
    9.5698768273e-03    1.0117430469e+05
    9.5796957612e-03    1.0117374219e+05
    9.5898220316e-03    1.0117352344e+05
    9.5998514444e-03    1.0117322656e+05
    9.6099553630e-03    1.0117356250e+05
    9.6197985113e-03    1.0117349219e+05
    9.6299480647e-03    1.0117360156e+05
    9.6398126334e-03    1.0117365625e+05
    9.6497107297e-03    1.0117371875e+05
    9.6598910168e-03    1.0117377344e+05
    9.6697807312e-03    1.0117377344e+05
    9.6799600869e-03    1.0117378906e+05
    9.6898702905e-03    1.0117372656e+05
    9.6997842193e-03    1.0117374219e+05
    9.7097568214e-03    1.0117378906e+05
    9.7198113799e-03    1.0117375781e+05
    9.7298854962e-03    1.0117371875e+05
    9.7396755591e-03    1.0117390625e+05
    9.7499042749e-03    1.0117390625e+05
    9.7598861903e-03    1.0117400000e+05
    9.7698858008e-03    1.0117399219e+05
    9.7799031064e-03    1.0117356250e+05
    9.7899148241e-03    1.0117074219e+05
    9.7999451682e-03    1.0116869531e+05
    9.8096681759e-03    1.0116891406e+05
    9.8196910694e-03    1.0116916406e+05
    9.8297689110e-03    1.0116921875e+05
    9.8398821428e-03    1.0116938281e+05
    9.8496880382e-03    1.0116958594e+05
    9.8598413169e-03    1.0116972656e+05
    9.8696900532e-03    1.0116984375e+05
    9.8798451945e-03    1.0117017969e+05
    9.8896939307e-03    1.0117039844e+05
    9.8998453468e-03    1.0117072656e+05
    9.9097816274e-03    1.0117071875e+05
    9.9198948592e-03    1.0117083594e+05
    9.9297640845e-03    1.0117103906e+05
    9.9397599697e-03    1.0117108594e+05
    9.9496673793e-03    1.0117127344e+05
    9.9598588422e-03    1.0117153906e+05
    9.9696191028e-03    1.0117146875e+05
    9.9799381569e-03    1.0117153906e+05
    9.9897040054e-03    1.0117183594e+05
    9.9996114150e-03    1.0117196094e+05
    1.0009663180e-02    1.0117191406e+05
    1.0019875132e-02    1.0117221094e+05
    1.0029868223e-02    1.0117222656e+05
    1.0039623827e-02    1.0117241406e+05
    1.0049918666e-02    1.0117255469e+05
    1.0059552267e-02    1.0117263281e+05
    1.0069717653e-02    1.0117268750e+05
    1.0079599917e-02    1.0117261719e+05
    1.0089599527e-02    1.0117035156e+05
    1.0099708103e-02    1.0116862500e+05
    1.0109927505e-02    1.0116878906e+05
    1.0119832121e-02    1.0116910156e+05
    1.0129846632e-02    1.0116919531e+05
    1.0139528662e-02    1.0116941406e+05
    1.0149754584e-02    1.0116944531e+05
    1.0159632191e-02    1.0116943750e+05
    1.0169598274e-02    1.0116961719e+05
    1.0179632343e-02    1.0116972656e+05
    1.0189710185e-02    1.0116977344e+05
    1.0199812241e-02    1.0116989844e+05
    1.0209501721e-02    1.0116997656e+05
    1.0219700634e-02    1.0116903906e+05
    1.0229936801e-02    1.0116665625e+05
    1.0239752010e-02    1.0116507031e+05
    1.0249616578e-02    1.0116500000e+05
    1.0259539820e-02    1.0116513281e+05
    1.0269497521e-02    1.0116546094e+05
    1.0279503651e-02    1.0116496094e+05
    1.0289550759e-02    1.0116322656e+05
    1.0299644433e-02    1.0116316406e+05
    1.0309831239e-02    1.0116346094e+05
    1.0319490917e-02    1.0116372656e+05
    1.0329769924e-02    1.0116399219e+05
    1.0339517146e-02    1.0116421094e+05
    1.0349893011e-02    1.0116434375e+05
    1.0359713808e-02    1.0116442969e+05
    1.0369672440e-02    1.0116472656e+05
    1.0379598476e-02    1.0116497656e+05
    1.0389578529e-02    1.0116516406e+05
    1.0399638675e-02    1.0116539844e+05
    1.0409713723e-02    1.0116549219e+05
    1.0419826023e-02    1.0116563281e+05
    1.0429448448e-02    1.0116581250e+05
    1.0439598002e-02    1.0116591406e+05
    1.0449793190e-02    1.0116609375e+05
    1.0459565558e-02    1.0116619531e+05
    1.0469897650e-02    1.0116647656e+05
    1.0479677469e-02    1.0116658594e+05
    1.0489543900e-02    1.0116678906e+05
    1.0499424301e-02    1.0116696094e+05
    1.0509899817e-02    1.0116706250e+05
    1.0519861244e-02    1.0116625781e+05
    1.0529811494e-02    1.0116647656e+05
    1.0539748706e-02    1.0116656250e+05
    1.0549765080e-02    1.0116664844e+05
    1.0559812188e-02    1.0116683594e+05
    1.0569874197e-02    1.0116696094e+05
    1.0579445399e-02    1.0116710156e+05
    1.0589604266e-02    1.0116722656e+05
    1.0599760339e-02    1.0116746875e+05
    1.0609417222e-02    1.0116765625e+05
    1.0619620793e-02    1.0116775000e+05
    1.0629891418e-02    1.0116788281e+05
    1.0639600456e-02    1.0116794531e+05
    1.0649902746e-02    1.0116802344e+05
    1.0659638792e-02    1.0116816406e+05
    1.0669377632e-02    1.0116817969e+05
    1.0679664090e-02    1.0116833594e+05
    1.0689876974e-02    1.0116849219e+05
    1.0699907318e-02    1.0116864844e+05
    1.0709670372e-02    1.0116891406e+05
    1.0719577782e-02    1.0116910156e+05
    1.0729570873e-02    1.0116928906e+05
    1.0739614256e-02    1.0116956250e+05
    1.0749663226e-02    1.0116971875e+05
    1.0759676807e-02    1.0116985156e+05
    1.0769613087e-02    1.0116987500e+05
    1.0779793374e-02    1.0117009375e+05
    1.0789765045e-02    1.0117028906e+05
    1.0799803771e-02    1.0117032031e+05
    1.0809795000e-02    1.0117024219e+05
    1.0819878429e-02    1.0117008594e+05
    1.0829837993e-02    1.0116890625e+05
    1.0839861818e-02    1.0116630469e+05
    1.0849860497e-02    1.0116611719e+05
    1.0859872214e-02    1.0116637500e+05
    1.0869849473e-02    1.0116613281e+05
    1.0879830457e-02    1.0116633594e+05
    1.0889773257e-02    1.0116641406e+05
    1.0899849236e-02    1.0116671094e+05
    1.0909875855e-02    1.0116671094e+05
    1.0919865221e-02    1.0116702344e+05
    1.0929746553e-02    1.0116680469e+05
    1.0939754546e-02    1.0116665625e+05
    1.0949848220e-02    1.0116674219e+05
    1.0959827341e-02    1.0116696094e+05
    1.0969798081e-02    1.0116718750e+05
    1.0979788378e-02    1.0116697656e+05
    1.0989814065e-02    1.0116721094e+05
    1.0999812745e-02    1.0116739844e+05
    1.1009785347e-02    1.0116471094e+05
    1.1019896716e-02    1.0116452344e+05
    1.1029690504e-02    1.0116478906e+05
    1.1039810255e-02    1.0116471094e+05
    1.1049776338e-02    1.0116469531e+05
    1.1059829965e-02    1.0116450781e+05
    1.1069700122e-02    1.0116455469e+05
    1.1079863645e-02    1.0116463281e+05
    1.1089838110e-02    1.0116464844e+05
    1.1099856347e-02    1.0116464844e+05
    1.1109906249e-02    1.0116469531e+05
    1.1119754985e-02    1.0116477344e+05
    1.1129889637e-02    1.0116465625e+05
    1.1139790528e-02    1.0116471094e+05
    1.1149743572e-02    1.0116466406e+05
    1.1159709655e-02    1.0116475781e+05
    1.1169709265e-02    1.0116489844e+05
    1.1179737747e-02    1.0116484375e+05
    1.1189779267e-02    1.0116494531e+05
    1.1199870147e-02    1.0116541406e+05
    1.1209697463e-02    1.0116546875e+05
    1.1219820939e-02    1.0116558594e+05
    1.1229692027e-02    1.0116572656e+05
    1.1239822954e-02    1.0116577344e+05
    1.1249744333e-02    1.0116278125e+05
    1.1259665713e-02    1.0116261719e+05
    1.1269869283e-02    1.0116303906e+05
    1.1279819533e-02    1.0116316406e+05
    1.1289818212e-02    1.0116322656e+05
    1.1299833655e-02    1.0116328906e+05
    1.1309842579e-02    1.0116346094e+05
    1.1319887824e-02    1.0116338281e+05
    1.1329699308e-02    1.0116346094e+05
    1.1339769699e-02    1.0116338281e+05
    1.1349845678e-02    1.0116359375e+05
    1.1359699070e-02    1.0116359375e+05
    1.1369816959e-02    1.0116371094e+05
    1.1379685253e-02    1.0116365625e+05
    1.1389832012e-02    1.0116235156e+05
    1.1399754323e-02    1.0116169531e+05
    1.1409671977e-02    1.0116171875e+05
    1.1419859715e-02    1.0116178906e+05
    1.1429818347e-02    1.0116202344e+05
    1.1439785361e-02    1.0116200781e+05
    1.1449745856e-02    1.0116235156e+05
    1.1459734291e-02    1.0116221094e+05
    1.1469749734e-02    1.0116205469e+05
    1.1479755864e-02    1.0116163281e+05
    1.1489767581e-02    1.0116116406e+05
    1.1499803513e-02    1.0116110156e+05
    1.1509847827e-02    1.0116108594e+05
    1.1519876309e-02    1.0116112500e+05
    1.1529672891e-02    1.0116110156e+05
    1.1539758183e-02    1.0116107031e+05
    1.1549835093e-02    1.0116121094e+05
    1.1559660546e-02    1.0116112500e+05
    1.1569766328e-02    1.0116134375e+05
    1.1579887010e-02    1.0116147656e+05
    1.1589733884e-02    1.0116135156e+05
    1.1599852704e-02    1.0116158594e+05
    1.1609739624e-02    1.0116184375e+05
    1.1619884521e-02    1.0116190625e+05
    1.1629772373e-02    1.0116200000e+05
    1.1639676988e-02    1.0116200000e+05
    1.1649857275e-02    1.0116207031e+05
    1.1659770273e-02    1.0116210156e+05
    1.1669682339e-02    1.0116242969e+05
    1.1679875664e-02    1.0116272656e+05
    1.1689813808e-02    1.0116300000e+05
    1.1699751951e-02    1.0116322656e+05
    1.1709700339e-02    1.0116347656e+05
    1.1719663627e-02    1.0116350781e+05
    1.1729628779e-02    1.0116371875e+05
    1.1739854701e-02    1.0116393750e+05
    1.1749835685e-02    1.0116427344e+05
    1.1759828776e-02    1.0116443750e+05
    1.1769821867e-02    1.0116460156e+05
    1.1779829860e-02    1.0116492969e+05
    1.1789849028e-02    1.0116503125e+05
    1.1799873784e-02    1.0116522656e+05
    1.1809631251e-02    1.0116538281e+05
    1.1819652282e-02    1.0116566406e+05
    1.1829683557e-02    1.0116571094e+05
    1.1839716695e-02    1.0116591406e+05
    1.1849748902e-02    1.0116511719e+05
    1.1859790422e-02    1.0116506250e+05
    1.1869841255e-02    1.0116527344e+05
    1.1879635043e-02    1.0116521094e+05
    1.1889703572e-02    1.0116533594e+05
    1.1899780482e-02    1.0116527344e+05
    1.1909860186e-02    1.0116289844e+05
    1.1919670738e-02    1.0116171094e+05
    1.1929747649e-02    1.0116194531e+05
    1.1939833872e-02    1.0116196094e+05
    1.1949659325e-02    1.0116196094e+05
    1.1959755793e-02    1.0116208594e+05
    1.1969855055e-02    1.0116250781e+05
    1.1979690753e-02    1.0116252344e+05
    1.1989791878e-02    1.0116275781e+05
    1.1999626644e-02    1.0116300000e+05
    1.2009724975e-02    1.0116322656e+05
    1.2019823305e-02    1.0116343750e+05
    1.2029655278e-02    1.0116366406e+05
    1.2039752677e-02    1.0116355469e+05
    1.2049850076e-02    1.0116181250e+05
    1.2059682049e-02    1.0116171875e+05
    1.2069779448e-02    1.0116196094e+05
    1.2079614215e-02    1.0116217969e+05
    1.2089716271e-02    1.0116214844e+05
    1.2099821121e-02    1.0116214844e+05
    1.2109661475e-02    1.0116182031e+05
    1.2119767256e-02    1.0116161719e+05
    1.2129607610e-02    1.0116182031e+05
    1.2139714323e-02    1.0116178906e+05
    1.2149820104e-02    1.0116183594e+05
    1.2159659527e-02    1.0116193750e+05
    1.2169766240e-02    1.0116189844e+05
    1.2179607525e-02    1.0116191406e+05
    1.2189716101e-02    1.0116172656e+05
    1.2199826539e-02    1.0116150000e+05
    1.2209671549e-02    1.0116141406e+05
    1.2219781987e-02    1.0116134375e+05
    1.2229626998e-02    1.0116149219e+05
    1.2239736505e-02    1.0116102344e+05
    1.2249846011e-02    1.0115817969e+05
    1.2259690091e-02    1.0115671094e+05
    1.2269799598e-02    1.0115681250e+05
    1.2279645540e-02    1.0115688281e+05
    1.2289760634e-02    1.0115714844e+05
    1.2299612164e-02    1.0115752344e+05
    1.2309730053e-02    1.0115778125e+05
    1.2319847941e-02    1.0115796094e+05
    1.2329700403e-02    1.0115817969e+05
    1.2339818291e-02    1.0115866406e+05
    1.2349671684e-02    1.0115863281e+05
    1.2359790504e-02    1.0115888281e+05
    1.2369642034e-02    1.0115900000e+05
    1.2379760854e-02    1.0115878906e+05
    1.2389612384e-02    1.0115717969e+05
    1.2399731204e-02    1.0115767969e+05
    1.2409850024e-02    1.0115768750e+05
    1.2419705279e-02    1.0115786719e+05
    1.2429828756e-02    1.0115793750e+05
    1.2439687736e-02    1.0115821875e+05
    1.2449815869e-02    1.0115840625e+05
    1.2459683232e-02    1.0115862500e+05
    1.2469822541e-02    1.0115863281e+05
    1.2479696423e-02    1.0115886719e+05
    1.2489835732e-02    1.0115883594e+05
    1.2499705888e-02    1.0115906250e+05
    1.2509842403e-02    1.0115896094e+05
    1.2519711629e-02    1.0115917969e+05
    1.2529846281e-02    1.0115928125e+05
    1.2539717369e-02    1.0115939844e+05
    1.2549594976e-02    1.0115941406e+05
    1.2559744529e-02    1.0115958594e+05
    1.2569628656e-02    1.0115971094e+05
    1.2579778209e-02    1.0115994531e+05
    1.2589660473e-02    1.0115996875e+05
    1.2599810027e-02    1.0116009375e+05
    1.2609691359e-02    1.0116022656e+05
    1.2619840913e-02    1.0116025000e+05
    1.2629725039e-02    1.0116033594e+05
    1.2639609165e-02    1.0116038281e+05
    1.2649760582e-02    1.0116046875e+05
    1.2659645639e-02    1.0116047656e+05
    1.2669797987e-02    1.0116060156e+05
    1.2679683976e-02    1.0116035156e+05
    1.2689835392e-02    1.0115793750e+05
    1.2699719518e-02    1.0115814844e+05
    1.2709602714e-02    1.0115836719e+05
    1.2719752267e-02    1.0115837500e+05
    1.2729634531e-02    1.0115866406e+05
    1.2739790604e-02    1.0115871875e+05
    1.2749684043e-02    1.0115880469e+05
    1.2759843841e-02    1.0115896094e+05
    1.2769736350e-02    1.0115924219e+05
    1.2779626995e-02    1.0115946094e+05
    1.2789784931e-02    1.0115964844e+05
    1.2799679302e-02    1.0115996094e+05
    1.2809846550e-02    1.0116007031e+05
    1.2819749303e-02    1.0116008594e+05
    1.2829650193e-02    1.0116016406e+05
    1.2839817442e-02    1.0115863281e+05
    1.2849717401e-02    1.0115811719e+05
    1.2859615497e-02    1.0115861719e+05
    1.2869781815e-02    1.0115877344e+05
    1.2879682705e-02    1.0115892969e+05
    1.2889591046e-02    1.0115902344e+05
    1.2899767607e-02    1.0115928906e+05
    1.2909675017e-02    1.0115936719e+05
    1.2919582427e-02    1.0115793750e+05
    1.2929756194e-02    1.0115803906e+05
    1.2939663604e-02    1.0115835156e+05
    1.2949576601e-02    1.0115858594e+05
    1.2959763408e-02    1.0115878125e+05
    1.2969686650e-02    1.0115897656e+05
    1.2979609892e-02    1.0115924219e+05
    1.2989800423e-02    1.0115927344e+05
    1.2999719940e-02    1.0115940625e+05
    1.3009638526e-02    1.0115935156e+05
    1.3019822538e-02    1.0115950781e+05
    1.3029741123e-02    1.0115958594e+05
    1.3039670885e-02    1.0115971094e+05
    1.3049608096e-02    1.0115977344e+05
    1.3059810735e-02    1.0115977344e+05
    1.3069742359e-02    1.0115983594e+05
    1.3079670258e-02    1.0115983594e+05
    1.3089603744e-02    1.0115975781e+05
    1.3099819422e-02    1.0115991406e+05
    1.3109778985e-02    1.0115987500e+05
    1.3119738549e-02    1.0115990625e+05
    1.3129696250e-02    1.0115992969e+05
    1.3139655814e-02    1.0116003906e+05
    1.3149623759e-02    1.0116010156e+05
    1.3159593567e-02    1.0116007031e+05
    1.3169828802e-02    1.0116007031e+05
    1.3179793023e-02    1.0116000781e+05
    1.3189755380e-02    1.0116000000e+05
    1.3199714944e-02    1.0115996094e+05
    1.3209686615e-02    1.0115881250e+05
    1.3219674118e-02    1.0115900000e+05
    1.3229670003e-02    1.0115908594e+05
    1.3239664026e-02    1.0115896875e+05
    1.3249654323e-02    1.0115889844e+05
    1.3259643689e-02    1.0115890625e+05
    1.3269632123e-02    1.0115883594e+05
    1.3279630803e-02    1.0115877344e+05
    1.3289641589e-02    1.0115872656e+05
    1.3299657963e-02    1.0115890625e+05
    1.3309674338e-02    1.0115902344e+05
    1.3319689780e-02    1.0115930469e+05
    1.3329708949e-02    1.0115927344e+05
    1.3339729048e-02    1.0115911719e+05
    1.3349748217e-02    1.0115603906e+05
    1.3359765522e-02    1.0115516406e+05
    1.3369782828e-02    1.0115543750e+05
    1.3379797339e-02    1.0115562500e+05
    1.3389811851e-02    1.0115594531e+05
    1.3399822637e-02    1.0115603906e+05
    1.3409567066e-02    1.0115628125e+05
    1.3419602066e-02    1.0115644531e+05
    1.3429655693e-02    1.0115653125e+05
    1.3439708389e-02    1.0115668750e+05
    1.3449759223e-02    1.0115674219e+05
    1.3459808193e-02    1.0115693750e+05
    1.3469585218e-02    1.0115711719e+05
    1.3479642570e-02    1.0115697656e+05
    1.3489705510e-02    1.0115697656e+05
    1.3499767520e-02    1.0115735156e+05
    1.3509555720e-02    1.0115753125e+05
    1.3519619592e-02    1.0115765625e+05
    1.3529689983e-02    1.0115778906e+05
    1.3539763168e-02    1.0115797656e+05
    1.3549564406e-02    1.0115640625e+05
    1.3559641317e-02    1.0115477344e+05
    1.3569726609e-02    1.0115475000e+05
    1.3579811901e-02    1.0115474219e+05
    1.3589622453e-02    1.0115506250e+05
    1.3599704020e-02    1.0115527344e+05
    1.3609782793e-02    1.0115538281e+05
    1.3619600795e-02    1.0115559375e+05
    1.3629699126e-02    1.0115578125e+05
    1.3639796525e-02    1.0115587500e+05
    1.3649619184e-02    1.0115589844e+05
    1.3659714721e-02    1.0115610156e+05
    1.3669541106e-02    1.0115622656e+05
    1.3679642230e-02    1.0115619531e+05
    1.3689742424e-02    1.0115363281e+05
    1.3699566945e-02    1.0115314844e+05
    1.3709666207e-02    1.0115327344e+05
    1.3719778508e-02    1.0115346875e+05
    1.3729627244e-02    1.0115371094e+05
    1.3739747927e-02    1.0115407031e+05
    1.3749594800e-02    1.0115446875e+05
    1.3759713620e-02    1.0115468750e+05
    1.3769567944e-02    1.0115467969e+05
    1.3779703528e-02    1.0115474219e+05
    1.3789564371e-02    1.0115483594e+05
    1.3799699955e-02    1.0115515625e+05
    1.3809560798e-02    1.0115525000e+05
    1.3819695450e-02    1.0115527344e+05
    1.3829553500e-02    1.0115509375e+05
    1.3839683495e-02    1.0115527344e+05
    1.3849535026e-02    1.0115557031e+05
    1.3859677128e-02    1.0115550781e+05
    1.3869562186e-02    1.0115558594e+05
    1.3879726641e-02    1.0115549219e+05
    1.3889615424e-02    1.0115564844e+05
    1.3899778947e-02    1.0115574219e+05
    1.3909667730e-02    1.0115596094e+05
    1.3919555582e-02    1.0115591406e+05
    1.3929718174e-02    1.0115600000e+05
    1.3939605094e-02    1.0115619531e+05
    1.3949772343e-02    1.0115553125e+05
    1.3959670439e-02    1.0115275000e+05
    1.3969566673e-02    1.0115121875e+05
    1.3979736716e-02    1.0115133594e+05
    1.3989628293e-02    1.0115127344e+05
    1.3999798335e-02    1.0115155469e+05
    1.4009712264e-02    1.0115181250e+05
    1.4019640163e-02    1.0115196094e+05
    1.4029568061e-02    1.0115210156e+05
    1.4039770700e-02    1.0115215625e+05
    1.4049696736e-02    1.0115233594e+05
    1.4059621841e-02    1.0115246875e+05
    1.4069546945e-02    1.0115247656e+05
    1.4079747722e-02    1.0115258594e+05
    1.4089671895e-02    1.0115260156e+05
    1.4099597000e-02    1.0115280469e+05
    1.4109531417e-02    1.0115286719e+05
    1.4119754545e-02    1.0115302344e+05
    1.4129702933e-02    1.0115321875e+05
    1.4139648527e-02    1.0115352344e+05
    1.4149592258e-02    1.0115356250e+05
    1.4159534127e-02    1.0115142969e+05
    1.4169758186e-02    1.0115128906e+05
    1.4179715887e-02    1.0115141406e+05
    1.4189684764e-02    1.0115146094e+05
    1.4199668542e-02    1.0115153906e+05
    1.4209656976e-02    1.0114919531e+05
    1.4219642617e-02    1.0114894531e+05
    1.4229625463e-02    1.0114890625e+05
    1.4239604585e-02    1.0114890625e+05
    1.4249580912e-02    1.0114910156e+05
    1.4259579591e-02    1.0114911719e+05
    1.4269588515e-02    1.0114928906e+05
    1.4279599302e-02    1.0114975000e+05
    1.4289609157e-02    1.0114985156e+05
    1.4299620874e-02    1.0115013281e+05
    1.4309640042e-02    1.0115036719e+05
    1.4319659211e-02    1.0115071094e+05
    1.4329677448e-02    1.0115052344e+05
    1.4339694753e-02    1.0115075000e+05
    1.4349711128e-02    1.0115080469e+05
    1.4359734021e-02    1.0115112500e+05
    1.4369760640e-02    1.0115133594e+05
    1.4379507862e-02    1.0115160156e+05
    1.4389533550e-02    1.0115183594e+05
    1.4399559237e-02    1.0115180469e+05
    1.4409590513e-02    1.0115207031e+05
    1.4419628307e-02    1.0115246094e+05
    1.4429669827e-02    1.0115247656e+05
    1.4439711347e-02    1.0115250781e+05
    1.4449752867e-02    1.0115250000e+05
    1.4459514059e-02    1.0115250000e+05
    1.4469551854e-02    1.0115237500e+05
    1.4479588717e-02    1.0115233594e+05
    1.4489623718e-02    1.0115193750e+05
    1.4499662444e-02    1.0115197656e+05
    1.4509710483e-02    1.0115211719e+05
    1.4519764110e-02    1.0115215625e+05
    1.4529537410e-02    1.0115221875e+05
    1.4539590105e-02    1.0115221094e+05
    1.4549646527e-02    1.0115225000e+05
    1.4559707604e-02    1.0115237500e+05
    1.4569770545e-02    1.0115235156e+05
    1.4579555020e-02    1.0115253125e+05
    1.4589618891e-02    1.0115258594e+05
    1.4599682763e-02    1.0115277344e+05
    1.4609747566e-02    1.0115291406e+05
    1.4619531110e-02    1.0115291406e+05
    1.4629594982e-02    1.0115310156e+05
    1.4639657922e-02    1.0115327344e+05
    1.4649723656e-02    1.0115331250e+05
    1.4659509994e-02    1.0115346094e+05
    1.4669573866e-02    1.0115344531e+05
    1.4679635875e-02    1.0115352344e+05
    1.4689698815e-02    1.0115359375e+05
    1.4699496329e-02    1.0115356250e+05
    1.4709584415e-02    1.0115371094e+05
    1.4719672501e-02    1.0115375000e+05
    1.4729757793e-02    1.0115378906e+05
    1.4739560895e-02    1.0115371875e+05
    1.4749643393e-02    1.0115378125e+05
    1.4759737067e-02    1.0115409375e+05
    1.4769556932e-02    1.0115422656e+05
    1.4779662713e-02    1.0115328906e+05
    1.4789490029e-02    1.0115362500e+05
    1.4799596742e-02    1.0115375000e+05
    1.4809702523e-02    1.0115381250e+05
    1.4819527045e-02    1.0115384375e+05
    1.4829630964e-02    1.0115347656e+05
    1.4839742333e-02    1.0115356250e+05
    1.4849585481e-02    1.0115346094e+05
    1.4859715477e-02    1.0115334375e+05
    1.4869562350e-02    1.0115331250e+05
    1.4879687689e-02    1.0115332031e+05
    1.4889531769e-02    1.0115334375e+05
    1.4899654314e-02    1.0115330469e+05
    1.4909503050e-02    1.0115337500e+05
    1.4919638634e-02    1.0115350000e+05
    1.4929496683e-02    1.0115360156e+05
    1.4939637855e-02    1.0115358594e+05
    1.4949497767e-02    1.0115366406e+05
    1.4959640801e-02    1.0115382031e+05
    1.4969503507e-02    1.0115384375e+05
    1.4979650266e-02    1.0115383594e+05
    1.4989514835e-02    1.0115390625e+05
    1.4999661595e-02    1.0115343750e+05
    1.5009526163e-02    1.0115378125e+05
    1.5019671991e-02    1.0115380469e+05
    1.5029534698e-02    1.0115383594e+05
    1.5039683320e-02    1.0115375781e+05
    1.5049557202e-02    1.0115358594e+05
    1.5059712343e-02    1.0115347656e+05
    1.5069582500e-02    1.0115168750e+05
    1.5079732053e-02    1.0114978906e+05
    1.5089596622e-02    1.0114950000e+05
    1.5099747106e-02    1.0114955469e+05
    1.5109641477e-02    1.0114968750e+05
    1.5119545162e-02    1.0114975000e+05
    1.5129734762e-02    1.0114978906e+05
    1.5139639378e-02    1.0114975000e+05
    1.5149543993e-02    1.0114980469e+05
    1.5159731731e-02    1.0114991406e+05
    1.5169637278e-02    1.0115018750e+05
    1.5179542825e-02    1.0115035156e+05
    1.5189730562e-02    1.0115047656e+05
    1.5199636109e-02    1.0115059375e+05
    1.5209540725e-02    1.0115053906e+05
    1.5219729394e-02    1.0115050000e+05
    1.5229634009e-02    1.0115063281e+05
    1.5239537694e-02    1.0115082031e+05
    1.5249731950e-02    1.0115084375e+05
    1.5259649605e-02    1.0115110156e+05
    1.5269570053e-02    1.0115121875e+05
    1.5279489569e-02    1.0115124219e+05
    1.5289691277e-02    1.0115138281e+05
    1.5299608931e-02    1.0115134375e+05
    1.5309526585e-02    1.0115142969e+05
    1.5319731086e-02    1.0115171094e+05
    1.5329656191e-02    1.0115178125e+05
    1.5339584090e-02    1.0115184375e+05
    1.5349511988e-02    1.0115206250e+05
    1.5359723009e-02    1.0115214844e+05
    1.5369649045e-02    1.0115202344e+05
    1.5379574150e-02    1.0115210156e+05
    1.5389498323e-02    1.0115216406e+05
    1.5399706550e-02    1.0115233594e+05
    1.5409640037e-02    1.0115236719e+05
    1.5419580974e-02    1.0115243750e+05
    1.5429524705e-02    1.0115259375e+05
    1.5439469367e-02    1.0115265625e+05
    1.5449696220e-02    1.0115269531e+05
    1.5459639020e-02    1.0115271094e+05
    1.5469581820e-02    1.0115271094e+05
    1.5479522757e-02    1.0115280469e+05
    1.5489470214e-02    1.0115292969e+05
    1.5499711037e-02    1.0115293750e+05
    1.5509674326e-02    1.0115291406e+05
    1.5519636683e-02    1.0115053125e+05
    1.5529598109e-02    1.0115056250e+05
    1.5539557673e-02    1.0115081250e+05
    1.5549517237e-02    1.0115090625e+05
    1.5559475869e-02    1.0115105469e+05
    1.5569719486e-02    1.0115136719e+05
    1.5579678118e-02    1.0115164844e+05
    1.5589637682e-02    1.0115183594e+05
    1.5599600039e-02    1.0115222656e+05
    1.5609567054e-02    1.0115253906e+05
    1.5619540587e-02    1.0115263281e+05
    1.5629518777e-02    1.0115277344e+05
    1.5639498830e-02    1.0115047656e+05
    1.5649477020e-02    1.0114968750e+05
    1.5659455210e-02    1.0114971094e+05
    1.5669718385e-02    1.0114993750e+05
    1.5679696575e-02    1.0115002344e+05
    1.5689680353e-02    1.0115021875e+05
    1.5699667856e-02    1.0115038281e+05
    1.5709655359e-02    1.0114997656e+05
    1.5719642863e-02    1.0114757031e+05
    1.5729630366e-02    1.0114789844e+05
    1.5739616007e-02    1.0114803125e+05
    1.5749601647e-02    1.0114827344e+05
    1.5759585425e-02    1.0114828906e+05
    1.5769569203e-02    1.0114843750e+05
    1.5779558569e-02    1.0114842969e+05
    1.5789549798e-02    1.0114853906e+05
    1.5799542889e-02    1.0114877344e+05
    1.5809535980e-02    1.0114869531e+05
    1.5819532797e-02    1.0114794531e+05
    1.5829527751e-02    1.0114825000e+05
    1.5839520842e-02    1.0114849219e+05
    1.5849512070e-02    1.0114889844e+05
    1.5859503299e-02    1.0114909375e+05
    1.5869492665e-02    1.0114919531e+05
    1.5879493207e-02    1.0114950781e+05
    1.5889503062e-02    1.0114967969e+05
    1.5899514779e-02    1.0114984375e+05
    1.5909528360e-02    1.0115009375e+05
    1.5919540077e-02    1.0115028906e+05
    1.5929551795e-02    1.0115053906e+05
    1.5939561650e-02    1.0115075781e+05
    1.5949575230e-02    1.0115075781e+05
    1.5959596261e-02    1.0115075000e+05
    1.5969621018e-02    1.0115091406e+05
    1.5979647636e-02    1.0115105469e+05
    1.5989674255e-02    1.0115125781e+05
    1.5999697149e-02    1.0115141406e+05
    1.6009720042e-02    1.0115159375e+05
    1.6019739211e-02    1.0115181250e+05
    1.6029471532e-02    1.0115208594e+05
    1.6039498150e-02    1.0115233594e+05
    1.6049539670e-02    1.0115258594e+05
    1.6059590504e-02    1.0115297656e+05
    1.6069643199e-02    1.0115327344e+05
    1.6079695895e-02    1.0115341406e+05
    1.6089748591e-02    1.0115371094e+05
    1.6099510714e-02    1.0115380469e+05
    1.6109561548e-02    1.0115402344e+05
    1.6119610518e-02    1.0115424219e+05
    1.6129663214e-02    1.0115396875e+05
    1.6139719635e-02    1.0115091406e+05
    1.6149491072e-02    1.0114843750e+05
    1.6159549356e-02    1.0114839844e+05
    1.6169609502e-02    1.0114860156e+05
    1.6179669648e-02    1.0114883594e+05
    1.6189727932e-02    1.0114896875e+05
    1.6199497506e-02    1.0114808594e+05
    1.6209555790e-02    1.0114785156e+05
    1.6219614074e-02    1.0114814844e+05
    1.6229670495e-02    1.0114819531e+05
    1.6239728779e-02    1.0114831250e+05
    1.6249502078e-02    1.0114835156e+05
    1.6259565949e-02    1.0114840625e+05
    1.6269631684e-02    1.0114842969e+05
    1.6279699281e-02    1.0114843750e+05
    1.6289766878e-02    1.0114844531e+05
    1.6299545765e-02    1.0114844531e+05
    1.6309613362e-02    1.0114846875e+05
    1.6319680959e-02    1.0114837500e+05
    1.6329750419e-02    1.0114835156e+05
    1.6339529306e-02    1.0114847656e+05
    1.6349596903e-02    1.0114841406e+05
    1.6359662637e-02    1.0114860156e+05
    1.6369730234e-02    1.0114846094e+05
    1.6379507259e-02    1.0114860156e+05
    1.6389574856e-02    1.0114868750e+05
    1.6399638727e-02    1.0114857031e+05
    1.6409706324e-02    1.0114864844e+05
    1.6419490799e-02    1.0114855469e+05
    1.6429565847e-02    1.0114844531e+05
    1.6439640895e-02    1.0114842969e+05
    1.6449715942e-02    1.0114747656e+05
    1.6459502280e-02    1.0114453906e+05
    1.6469575465e-02    1.0114352344e+05
    1.6479646787e-02    1.0114317969e+05
    1.6489719972e-02    1.0114321094e+05
    1.6499504447e-02    1.0114333594e+05
    1.6509579495e-02    1.0114314844e+05
    1.6519654542e-02    1.0114318750e+05
    1.6529729590e-02    1.0114325000e+05
    1.6539515927e-02    1.0114333594e+05
    1.6549589112e-02    1.0114343750e+05
    1.6559662297e-02    1.0114361719e+05
    1.6569737345e-02    1.0114378906e+05
    1.6579529271e-02    1.0114392969e+05
    1.6589617357e-02    1.0114400000e+05
    1.6599707305e-02    1.0114408594e+05
    1.6609508544e-02    1.0114421094e+05
    1.6619598493e-02    1.0114437500e+05
    1.6629688442e-02    1.0114453906e+05
    1.6639776528e-02    1.0114463281e+05
    1.6649577767e-02    1.0114483594e+05
    1.6659667715e-02    1.0114502344e+05
    1.6669759527e-02    1.0114535156e+05
    1.6679560766e-02    1.0114538281e+05
    1.6689648852e-02    1.0114560156e+05
    1.6699736938e-02    1.0114578906e+05
    1.6709534451e-02    1.0114593750e+05
    1.6719618812e-02    1.0114593750e+05
    1.6729708761e-02    1.0114614844e+05
    1.6739517450e-02    1.0114628906e+05
    1.6749618575e-02    1.0114640625e+05
    1.6759719700e-02    1.0114612500e+05
    1.6769533977e-02    1.0114608594e+05
    1.6779633239e-02    1.0114596875e+05
    1.6789734364e-02    1.0114618750e+05
    1.6799544916e-02    1.0114646875e+05
    1.6809642315e-02    1.0114656250e+05
    1.6819739714e-02    1.0114669531e+05
    1.6829552129e-02    1.0114678906e+05
    1.6839656979e-02    1.0114693750e+05
    1.6849767417e-02    1.0114706250e+05
    1.6859589145e-02    1.0114721094e+05
    1.6869699582e-02    1.0114746094e+05
    1.6879519448e-02    1.0114775781e+05
    1.6889626160e-02    1.0114809375e+05
    1.6899732873e-02    1.0114835156e+05
    1.6909549013e-02    1.0114853906e+05
    1.6919652000e-02    1.0114863281e+05
    1.6929756850e-02    1.0114885156e+05
    1.6939582303e-02    1.0114902344e+05
    1.6949703917e-02    1.0114908594e+05
    1.6959540546e-02    1.0114914844e+05
    1.6969664022e-02    1.0114925781e+05
    1.6979787499e-02    1.0114774219e+05
    1.6989622265e-02    1.0114542969e+05
    1.6999747604e-02    1.0114578906e+05
    1.7009584233e-02    1.0114591406e+05
    1.7019713297e-02    1.0114603125e+05
    1.7029551789e-02    1.0114625781e+05
    1.7039677128e-02    1.0114633594e+05
    1.7049804330e-02    1.0114627344e+05
    1.7059639096e-02    1.0114630469e+05
    1.7069764435e-02    1.0114627344e+05
    1.7079601064e-02    1.0114646875e+05
    1.7089724541e-02    1.0114638281e+05
    1.7099559307e-02    1.0114646094e+05
    1.7109684646e-02    1.0114646875e+05
    1.7119808123e-02    1.0114647656e+05
    1.7129642889e-02    1.0114644531e+05
    1.7139770091e-02    1.0114633594e+05
    1.7149614170e-02    1.0114625000e+05
    1.7159748822e-02    1.0114638281e+05
    1.7169594765e-02    1.0114639844e+05
    1.7179729417e-02    1.0114646875e+05
    1.7189573497e-02    1.0114646875e+05
    1.7199708149e-02    1.0114632031e+05
    1.7209554091e-02    1.0114366406e+05
    1.7219694331e-02    1.0114193750e+05
    1.7229553312e-02    1.0114227344e+05
    1.7239706591e-02    1.0114238281e+05
    1.7249567434e-02    1.0114249219e+05
    1.7259715125e-02    1.0114253906e+05
    1.7269572243e-02    1.0114253906e+05
    1.7279719934e-02    1.0114269531e+05
    1.7289578915e-02    1.0114299219e+05
    1.7299739644e-02    1.0114330469e+05
    1.7309613526e-02    1.0114346094e+05
    1.7319774255e-02    1.0114369531e+05
    1.7329644412e-02    1.0114385156e+05
    1.7339803278e-02    1.0114396094e+05
    1.7349673435e-02    1.0114411719e+05
    1.7359543592e-02    1.0114358594e+05
    1.7369706184e-02    1.0114355469e+05
    1.7379580066e-02    1.0114387500e+05
    1.7389753833e-02    1.0114405469e+05
    1.7399650067e-02    1.0114425781e+05
    1.7409557477e-02    1.0114439844e+05
    1.7419755459e-02    1.0114441406e+05
    1.7429657280e-02    1.0114446094e+05
    1.7439559102e-02    1.0114465625e+05
    1.7449749634e-02    1.0114471094e+05
    1.7459647730e-02    1.0114478125e+05
    1.7469547689e-02    1.0114508594e+05
    1.7479740083e-02    1.0114519531e+05
    1.7489649355e-02    1.0114552344e+05
    1.7499567941e-02    1.0114546094e+05
    1.7509784549e-02    1.0114565625e+05
    1.7519710585e-02    1.0114587500e+05
    1.7529636621e-02    1.0114593750e+05
    1.7539562657e-02    1.0114609375e+05
    1.7549779266e-02    1.0114619531e+05
    1.7559703439e-02    1.0114646094e+05
    1.7569627613e-02    1.0114659375e+05
    1.7579551786e-02    1.0114675000e+05
    1.7589764670e-02    1.0114691406e+05
    1.7599685118e-02    1.0114689844e+05
    1.7609605566e-02    1.0114687500e+05
    1.7619818449e-02    1.0114694531e+05
    1.7629738897e-02    1.0114703125e+05
    1.7639663070e-02    1.0114709375e+05
    1.7649585381e-02    1.0114721875e+05
    1.7659800127e-02    1.0114731250e+05
    1.7669722438e-02    1.0114762500e+05
    1.7679648474e-02    1.0114766406e+05
    1.7689576373e-02    1.0114808594e+05
    1.7699800432e-02    1.0114838281e+05
    1.7709733918e-02    1.0114866406e+05
    1.7719671130e-02    1.0114878906e+05
    1.7729610205e-02    1.0114889844e+05
    1.7739841715e-02    1.0114919531e+05
    1.7749780789e-02    1.0114928906e+05
    1.7759718001e-02    1.0114938281e+05
    1.7769653350e-02    1.0114953906e+05
    1.7779588699e-02    1.0114962500e+05
    1.7789816484e-02    1.0114968750e+05
    1.7799749970e-02    1.0114975000e+05
    1.7809687182e-02    1.0114985156e+05
    1.7819628119e-02    1.0115008594e+05
    1.7829576507e-02    1.0115017969e+05
    1.7839817330e-02    1.0115025000e+05
    1.7849765718e-02    1.0115025000e+05
    1.7859714106e-02    1.0115037500e+05
    1.7869660631e-02    1.0115053906e+05
    1.7879607156e-02    1.0115072656e+05
    1.7889846116e-02    1.0115091406e+05
    1.7899792641e-02    1.0115103906e+05
    1.7909737304e-02    1.0115125781e+05
    1.7919681966e-02    1.0115146875e+05
    1.7929624766e-02    1.0115188281e+05
    1.7939854413e-02    1.0115216406e+05
    1.7949787900e-02    1.0115243750e+05
    1.7959713936e-02    1.0115258594e+05
    1.7969632521e-02    1.0115282031e+05
    1.7979837954e-02    1.0115300781e+05
    1.7989747226e-02    1.0115319531e+05
    1.7999649048e-02    1.0115338281e+05
    1.8009837717e-02    1.0115353906e+05
    1.8019732088e-02    1.0115371094e+05
    1.8029619008e-02    1.0115375000e+05
    1.8039794639e-02    1.0115383594e+05
    1.8049690872e-02    1.0115388281e+05
    1.8059717491e-02    1.0115402344e+05
    1.8069595098e-02    1.0115393750e+05
    1.8079619855e-02    1.0115396875e+05
    1.8089786172e-02    1.0115390625e+05
    1.8099782988e-02    1.0115400781e+05
    1.8109593540e-02    1.0115377344e+05
    1.8119852990e-02    1.0115377344e+05
    1.8129592761e-02    1.0115391406e+05
    1.8139781430e-02    1.0115396094e+05
    1.8149763346e-02    1.0115396875e+05
    1.8159862608e-02    1.0115396094e+05
    1.8169734627e-02    1.0115403125e+05
    1.8179716542e-02    1.0115427344e+05
    1.8189810216e-02    1.0115421875e+05
    1.8199658021e-02    1.0115415625e+05
    1.8209604546e-02    1.0115428125e+05
    1.8219646066e-02    1.0115431250e+05
    1.8229786307e-02    1.0115417969e+05
    1.8239645287e-02    1.0115424219e+05
    1.8249584362e-02    1.0115405469e+05
    1.8259607255e-02    1.0115416406e+05
    1.8269708380e-02    1.0115396094e+05
    1.8279507756e-02    1.0115412500e+05
    1.8289744854e-02    1.0115316406e+05
    1.8299652264e-02    1.0115060156e+05
    1.8309833482e-02    1.0114796875e+05
    1.8319671974e-02    1.0114771094e+05
    1.8329767510e-02    1.0114797656e+05
    1.8339855596e-02    1.0114810156e+05
    1.8349686638e-02    1.0114802344e+05
    1.8359784037e-02    1.0114815625e+05
    1.8369639292e-02    1.0114853906e+05
    1.8379792571e-02    1.0114853906e+05
    1.8389709294e-02    1.0114869531e+05
    1.8399633467e-02    1.0114878906e+05
    1.8409823999e-02    1.0114896094e+05
    1.8419753760e-02    1.0114885156e+05
    1.8429683521e-02    1.0114868750e+05
    1.8439872190e-02    1.0114890625e+05
    1.8449798226e-02    1.0114866406e+05
    1.8459727988e-02    1.0114889844e+05
    1.8469678238e-02    1.0114887500e+05
    1.8479645252e-02    1.0114896875e+05
    1.8489878625e-02    1.0114885156e+05
    1.8499847502e-02    1.0114910156e+05
    1.8509816378e-02    1.0114925000e+05
    1.8519785255e-02    1.0114921094e+05
    1.8529755995e-02    1.0114947656e+05
    1.8539724872e-02    1.0114949219e+05
    1.8549693748e-02    1.0114710156e+05
    1.8559662625e-02    1.0114603906e+05
    1.8569633365e-02    1.0114627344e+05
    1.8579883501e-02    1.0114639844e+05
    1.8589895219e-02    1.0114639844e+05
    1.8599659204e-02    1.0114631250e+05
    1.8609689549e-02    1.0114646094e+05
    1.8619719893e-02    1.0114671094e+05
    1.8629748374e-02    1.0114689844e+05
    1.8639776856e-02    1.0114700781e+05
    1.8649803475e-02    1.0114708594e+05
    1.8659831956e-02    1.0114688281e+05
    1.8669858575e-02    1.0114691406e+05
    1.8679888919e-02    1.0114687500e+05
    1.8689658493e-02    1.0114656250e+05
    1.8699694425e-02    1.0114650000e+05
    1.8709732220e-02    1.0114672656e+05
    1.8719771877e-02    1.0114689844e+05
    1.8729811534e-02    1.0114713281e+05
    1.8739851192e-02    1.0114721094e+05
    1.8749890849e-02    1.0114740625e+05
    1.8759664148e-02    1.0114715625e+05
    1.8769703805e-02    1.0114724219e+05
    1.8779741600e-02    1.0114646094e+05
    1.8789777532e-02    1.0114633594e+05
    1.8799815327e-02    1.0114653125e+05
    1.8809854984e-02    1.0114666406e+05
    1.8819892779e-02    1.0114685156e+05
    1.8829667941e-02    1.0114702344e+05
    1.8839707598e-02    1.0114700781e+05
    1.8849747255e-02    1.0114706250e+05
    1.8859788775e-02    1.0114722656e+05
    1.8869835883e-02    1.0114738281e+05
    1.8879886717e-02    1.0114762500e+05
    1.8889682367e-02    1.0114775781e+05
    1.8899744377e-02    1.0114789844e+05
    1.8909810111e-02    1.0114788281e+05
    1.8919873983e-02    1.0114785156e+05
    1.8929673359e-02    1.0114800781e+05
    1.8939737231e-02    1.0114814844e+05
    1.8949801102e-02    1.0114825781e+05
    1.8959861249e-02    1.0114819531e+05
    1.8969658762e-02    1.0114535156e+05
    1.8979717046e-02    1.0114433594e+05
    1.8989777192e-02    1.0114433594e+05
    1.8999837339e-02    1.0114433594e+05
    1.9009899348e-02    1.0114471094e+05
    1.9019698724e-02    1.0114458594e+05
    1.9029762596e-02    1.0114472656e+05
    1.9039828330e-02    1.0114269531e+05
    1.9049894065e-02    1.0114278906e+05
    1.9059697166e-02    1.0114325781e+05
    1.9069762900e-02    1.0114332031e+05
    1.9079830498e-02    1.0114346875e+05
    1.9089896232e-02    1.0114327344e+05
    1.9099699333e-02    1.0114078125e+05
    1.9109765068e-02    1.0114072656e+05
    1.9119828939e-02    1.0114077344e+05
    1.9129892811e-02    1.0114083594e+05
    1.9139692187e-02    1.0114106250e+05
    1.9149756059e-02    1.0114137500e+05
    1.9159827381e-02    1.0114156250e+05
    1.9169919193e-02    1.0114171875e+05
    1.9179763272e-02    1.0114192969e+05
    1.9189884886e-02    1.0114208594e+05
    1.9199740142e-02    1.0114211719e+05
    1.9209861755e-02    1.0114094531e+05
    1.9219715148e-02    1.0114090625e+05
    1.9229834899e-02    1.0114121094e+05
    1.9239688292e-02    1.0114122656e+05
    1.9249806181e-02    1.0114158594e+05
    1.9259927794e-02    1.0114156250e+05
    1.9269792363e-02    1.0114013281e+05
    1.9279669970e-02    1.0113972656e+05
    1.9289828837e-02    1.0113962500e+05
    1.9299725071e-02    1.0113978906e+05
    1.9309889525e-02    1.0114002344e+05
    1.9319785759e-02    1.0113933594e+05
    1.9329681993e-02    1.0113871094e+05
    1.9339842722e-02    1.0113896875e+05
    1.9349735230e-02    1.0113900000e+05
    1.9359895959e-02    1.0113928906e+05
    1.9369790331e-02    1.0113960156e+05
    1.9379692152e-02    1.0113964844e+05
    1.9389871508e-02    1.0113978906e+05
    1.9399793819e-02    1.0114005469e+05
    1.9409725443e-02    1.0114021875e+05
    1.9419929013e-02    1.0114037500e+05
    1.9429864362e-02    1.0114046094e+05
    1.9439799711e-02    1.0114052344e+05
[...]
    6.5135911107e-02    1.0108409375e+05
    6.5145812929e-02    1.0108439844e+05
    6.5156057477e-02    1.0108460156e+05
    6.5165959299e-02    1.0108477344e+05
    6.5175861120e-02    1.0108508594e+05
    6.5185755491e-02    1.0108524219e+05
    6.5196000040e-02    1.0108546875e+05
    6.5205901861e-02    1.0108539844e+05
    6.5215803683e-02    1.0108556250e+05
    6.5226048231e-02    1.0108577344e+05
    6.5235950053e-02    1.0108584375e+05
    6.5245851874e-02    1.0108611719e+05
    6.5255761147e-02    1.0108644531e+05
    6.5266005695e-02    1.0108668750e+05
    6.5275907516e-02    1.0108663281e+05
    6.5285809338e-02    1.0108655469e+05
    6.5296053886e-02    1.0108682031e+05
    6.5305955708e-02    1.0108717969e+05
    6.5315864980e-02    1.0108746094e+05
    6.5325766802e-02    1.0108752344e+05
    6.5336011350e-02    1.0108797656e+05
    6.5345913172e-02    1.0108799219e+05
    6.5355822444e-02    1.0108808594e+05
    6.5366066992e-02    1.0108814844e+05
    6.5375968814e-02    1.0108830469e+05
    6.5385870636e-02    1.0108857031e+05
    6.5395779908e-02    1.0108866406e+05
    6.5406024456e-02    1.0108903906e+05
    6.5415933728e-02    1.0108922656e+05
    6.5425835550e-02    1.0108937500e+05
    6.5435744822e-02    1.0108953906e+05
    6.5445989370e-02    1.0108963281e+05
    6.5455891192e-02    1.0108964844e+05
    6.5465800464e-02    1.0108986719e+05
    6.5476045012e-02    1.0109000000e+05
    6.5485954285e-02    1.0109033594e+05
    6.5495856106e-02    1.0109053906e+05
    6.5505765378e-02    1.0109058594e+05
    6.5516009927e-02    1.0109078906e+05
    6.5525911748e-02    1.0109091406e+05
    6.5535821021e-02    1.0109103906e+05
    6.5545730293e-02    1.0109125781e+05
    6.5555974841e-02    1.0109163281e+05
    6.5565884113e-02    1.0109168750e+05
    6.5575785935e-02    1.0109181250e+05
    6.5586037934e-02    1.0109188281e+05
    6.5595939755e-02    1.0109199219e+05
    6.5605849028e-02    1.0109216406e+05
    6.5615750849e-02    1.0109210156e+05
    6.5626002848e-02    1.0109209375e+05
    6.5635912120e-02    1.0109233594e+05
    6.5645813942e-02    1.0109246094e+05
    6.5655723214e-02    1.0109271875e+05
    6.5665967762e-02    1.0109281250e+05
    6.5675877035e-02    1.0109296094e+05
    6.5685778856e-02    1.0109327344e+05
    6.5695688128e-02    1.0109330469e+05
    6.5705940127e-02    1.0109353125e+05
    6.5715841949e-02    1.0109371094e+05
    6.5725751221e-02    1.0109381250e+05
    6.5736003220e-02    1.0109405469e+05
    6.5745905042e-02    1.0109443750e+05
    6.5755814314e-02    1.0109441406e+05
    6.5765723586e-02    1.0109460156e+05
    6.5775968134e-02    1.0109482031e+05
    6.5785877407e-02    1.0109488281e+05
    6.5795786679e-02    1.0109505469e+05
    6.5805695951e-02    1.0109517969e+05
    6.5815940499e-02    1.0109543750e+05
    6.5825849771e-02    1.0109560156e+05
    6.5835759044e-02    1.0109571094e+05
    6.5846003592e-02    1.0109580469e+05
    6.5855912864e-02    1.0109577344e+05
    6.5865822136e-02    1.0109475781e+05
    6.5875723958e-02    1.0109503906e+05
    6.5885975957e-02    1.0109515625e+05
    6.5895885229e-02    1.0109517969e+05
    6.5905794501e-02    1.0109463281e+05
    6.5915703773e-02    1.0109486719e+05
    6.5925948322e-02    1.0109503125e+05
    6.5935857594e-02    1.0109508594e+05
    6.5945766866e-02    1.0109497656e+05
    6.5955676138e-02    1.0109516406e+05
    6.5965920687e-02    1.0109510156e+05
    6.5975829959e-02    1.0109508594e+05
    6.5985739231e-02    1.0109503125e+05
    6.5995648503e-02    1.0109500781e+05
    6.6005900502e-02    1.0109482031e+05
    6.6015802324e-02    1.0109483594e+05
    6.6025711596e-02    1.0109464844e+05
    6.6035963595e-02    1.0109465625e+05
    6.6045872867e-02    1.0109471094e+05
    6.6055782139e-02    1.0109486719e+05
    6.6065691411e-02    1.0109503125e+05
    6.6075943410e-02    1.0109509375e+05
    6.6085852683e-02    1.0109505469e+05
    6.6095754504e-02    1.0109509375e+05
    6.6105663776e-02    1.0109512500e+05
    6.6115915775e-02    1.0109510156e+05
    6.6125825047e-02    1.0109528125e+05
    6.6135734320e-02    1.0109543750e+05
    6.6145643592e-02    1.0109564844e+05
    6.6155895591e-02    1.0109560156e+05
    6.6165804863e-02    1.0109582031e+05
    6.6175714135e-02    1.0109596094e+05
    6.6185623407e-02    1.0109628125e+05
    6.6195875406e-02    1.0109616406e+05
    6.6205784678e-02    1.0109652344e+05
    6.6215693951e-02    1.0109660156e+05
    6.6225945950e-02    1.0109682031e+05
    6.6235855222e-02    1.0109688281e+05
    6.6245764494e-02    1.0109691406e+05
    6.6255673766e-02    1.0109721094e+05
    6.6265925765e-02    1.0109727344e+05
    6.6275835037e-02    1.0109737500e+05
    6.6285744309e-02    1.0109762500e+05
    6.6295653582e-02    1.0109772656e+05
    6.6305905581e-02    1.0109785156e+05
    6.6315814853e-02    1.0109671094e+05
    6.6325724125e-02    1.0109558594e+05
    6.6335633397e-02    1.0109599219e+05
    6.6345885396e-02    1.0109603906e+05
    6.6355794668e-02    1.0109478906e+05
    6.6365703940e-02    1.0109472656e+05
    6.6375613213e-02    1.0109425000e+05
    6.6385865211e-02    1.0109350781e+05
    6.6395774484e-02    1.0109350781e+05
    6.6405683756e-02    1.0109377344e+05
    6.6415600479e-02    1.0109275000e+05
    6.6425852478e-02    1.0109258594e+05
    6.6435761750e-02    1.0109285156e+05
    6.6445671022e-02    1.0109296875e+05
    6.6455923021e-02    1.0109300781e+05
    6.6465832293e-02    1.0109271094e+05
    6.6475741565e-02    1.0109122656e+05
    6.6485650837e-02    1.0109157031e+05
    6.6495902836e-02    1.0109152344e+05
    6.6505819559e-02    1.0109171094e+05
    6.6515728831e-02    1.0109177344e+05
    6.6525638103e-02    1.0109200000e+05
    6.6535890102e-02    1.0109216406e+05
    6.6545799375e-02    1.0109228906e+05
    6.6555708647e-02    1.0109228906e+05
    6.6565625370e-02    1.0109238281e+05
    6.6575877368e-02    1.0109239844e+05
    6.6585786641e-02    1.0109239844e+05
    6.6595695913e-02    1.0109246875e+05
    6.6605605185e-02    1.0109255469e+05
    6.6615864635e-02    1.0109257031e+05
    6.6625773907e-02    1.0109267969e+05
    6.6635683179e-02    1.0109291406e+05
    6.6645592451e-02    1.0109286719e+05
    6.6655844450e-02    1.0109302344e+05
    6.6665761173e-02    1.0109325000e+05
    6.6675670445e-02    1.0109353906e+05
    6.6685579717e-02    1.0109380469e+05
    6.6695831716e-02    1.0109428125e+05
    6.6705748439e-02    1.0109440625e+05
    6.6715657711e-02    1.0109462500e+05
    6.6725566983e-02    1.0109488281e+05
    6.6735826433e-02    1.0109507031e+05
    6.6745735705e-02    1.0109538281e+05
    6.6755644977e-02    1.0109562500e+05
    6.6765561700e-02    1.0109571094e+05
    6.6775813699e-02    1.0109578906e+05
    6.6785722971e-02    1.0109610156e+05
    6.6795632243e-02    1.0109589844e+05
    6.6805548966e-02    1.0109616406e+05
    6.6815800965e-02    1.0109639844e+05
    6.6825710237e-02    1.0109653125e+05
    6.6835626960e-02    1.0109696875e+05
    6.6845536232e-02    1.0109705469e+05
    6.6855788231e-02    1.0109717969e+05
    6.6865697503e-02    1.0109736719e+05
    6.6875614226e-02    1.0109760156e+05
    6.6885866225e-02    1.0109783594e+05
    6.6895775497e-02    1.0109821875e+05
    6.6905692220e-02    1.0109862500e+05
    6.6915601492e-02    1.0109896094e+05
    6.6925860941e-02    1.0109927344e+05
    6.6935770214e-02    1.0109947656e+05
    6.6945679486e-02    1.0109978906e+05
    6.6955596209e-02    1.0110002344e+05
    6.6965848207e-02    1.0110036719e+05
    6.6975764930e-02    1.0110082031e+05
    6.6985681653e-02    1.0110110156e+05
    6.6995590925e-02    1.0110141406e+05
    6.7005850375e-02    1.0110185156e+05
    6.7015759647e-02    1.0110215625e+05
    6.7025676370e-02    1.0110257031e+05
    6.7035593092e-02    1.0110292969e+05
    6.7045509815e-02    1.0110328125e+05
    6.7055761814e-02    1.0110366406e+05
    6.7065678537e-02    1.0110402344e+05
    6.7075595260e-02    1.0110435156e+05
    6.7085511982e-02    1.0110471094e+05
    6.7095771432e-02    1.0110503125e+05
    6.7105688155e-02    1.0110539844e+05
    6.7115604877e-02    1.0110578906e+05
    6.7125521600e-02    1.0110608594e+05
    6.7135781050e-02    1.0110658594e+05
    6.7145697773e-02    1.0110683594e+05
    6.7155614495e-02    1.0110721094e+05
    6.7165531218e-02    1.0110755469e+05
    6.7175790668e-02    1.0110796875e+05
    6.7185707390e-02    1.0110831250e+05
    6.7195631564e-02    1.0110861719e+05
    6.7205548286e-02    1.0110902344e+05
    6.7215807736e-02    1.0110937500e+05
    6.7225724459e-02    1.0110969531e+05
    6.7235641181e-02    1.0111002344e+05
    6.7245565355e-02    1.0111035156e+05
    6.7255482078e-02    1.0111066406e+05
    6.7265741527e-02    1.0111105469e+05
    6.7275658250e-02    1.0111153906e+05
    6.7285574973e-02    1.0111188281e+05
    6.7295499146e-02    1.0111221875e+05
    6.7305758595e-02    1.0111244531e+05
    6.7315675318e-02    1.0111267969e+05
    6.7325599492e-02    1.0111297656e+05
    6.7335516214e-02    1.0111327344e+05
    6.7345775664e-02    1.0111347656e+05
    6.7355692387e-02    1.0111383594e+05
    6.7365616560e-02    1.0111413281e+05
    6.7375533283e-02    1.0111446094e+05
    6.7385792732e-02    1.0111475000e+05
    6.7395716906e-02    1.0111502344e+05
    6.7405633628e-02    1.0111533594e+05
    6.7415557802e-02    1.0111561719e+05
    6.7425474524e-02    1.0111597656e+05
    6.7435733974e-02    1.0111634375e+05
    6.7445658147e-02    1.0111660156e+05
    6.7455574870e-02    1.0111686719e+05
    6.7465499043e-02    1.0111711719e+05
    6.7475758493e-02    1.0111740625e+05
    6.7485682666e-02    1.0111766406e+05
    6.7495599389e-02    1.0111802344e+05
    6.7505523562e-02    1.0111821875e+05
    6.7515783012e-02    1.0111849219e+05
    6.7525707185e-02    1.0111703906e+05
    6.7535623908e-02    1.0111664844e+05
    6.7545548081e-02    1.0111685156e+05
    6.7555472255e-02    1.0111725000e+05
    6.7565731704e-02    1.0111759375e+05
    6.7575655878e-02    1.0111793750e+05
    6.7585572600e-02    1.0111822656e+05
    6.7595496774e-02    1.0111855469e+05
    6.7605763674e-02    1.0111884375e+05
    6.7615680397e-02    1.0111911719e+05
    6.7625604570e-02    1.0111947656e+05
    6.7635528743e-02    1.0111978125e+05
    6.7645445466e-02    1.0112003125e+05
    6.7655712366e-02    1.0112011719e+05
    6.7665629089e-02    1.0112035156e+05
    6.7675553262e-02    1.0112066406e+05
    6.7685477436e-02    1.0112078906e+05
    6.7695736885e-02    1.0112094531e+05
    6.7705661058e-02    1.0112125000e+05
    6.7715585232e-02    1.0112124219e+05
    6.7725509405e-02    1.0112140625e+05
    6.7735426128e-02    1.0112158594e+05
    6.7745693028e-02    1.0112172656e+05
    6.7755617201e-02    1.0112177344e+05
    6.7765533924e-02    1.0112189844e+05
    6.7775458097e-02    1.0112192969e+05
    6.7785724998e-02    1.0112203906e+05
    6.7795649171e-02    1.0112224219e+05
    6.7805565894e-02    1.0112208594e+05
    6.7815490067e-02    1.0112089844e+05
    6.7825414240e-02    1.0112114844e+05
    6.7835681140e-02    1.0112118750e+05
    6.7845597863e-02    1.0112135156e+05
    6.7855522037e-02    1.0112153906e+05
    6.7865446210e-02    1.0112150000e+05
    6.7875713110e-02    1.0112012500e+05
    6.7885637283e-02    1.0112034375e+05
    6.7895554006e-02    1.0112046094e+05
    6.7905478179e-02    1.0112058594e+05
    6.7915402353e-02    1.0112080469e+05
    6.7925669253e-02    1.0112093750e+05
    6.7935593426e-02    1.0112108594e+05
    6.7945517600e-02    1.0112131250e+05
    6.7955434322e-02    1.0112147656e+05
    6.7965701222e-02    1.0112147656e+05
    6.7975625396e-02    1.0112033594e+05
    6.7985549569e-02    1.0111974219e+05
    6.7995473742e-02    1.0111984375e+05
    6.8005397916e-02    1.0111875000e+05
    6.8015657365e-02    1.0111919531e+05
    6.8025581539e-02    1.0111946094e+05
    6.8035505712e-02    1.0111977344e+05
    6.8045429885e-02    1.0112002344e+05
    6.8055696785e-02    1.0112025000e+05
    6.8065613508e-02    1.0112033594e+05
    6.8075537682e-02    1.0111891406e+05
    6.8085461855e-02    1.0111912500e+05
    6.8095386028e-02    1.0111939844e+05
    6.8105652928e-02    1.0111958594e+05
    6.8115577102e-02    1.0111986719e+05
    6.8125501275e-02    1.0111985156e+05
    6.8135425448e-02    1.0111789844e+05
    6.8145692348e-02    1.0111760156e+05
    6.8155616522e-02    1.0111784375e+05
    6.8165540695e-02    1.0111650000e+05
    6.8175464869e-02    1.0111677344e+05
    6.8185389042e-02    1.0111710156e+05
    6.8195655942e-02    1.0111699219e+05
    6.8205580115e-02    1.0111600000e+05
    6.8215504289e-02    1.0111635156e+05
    6.8225428462e-02    1.0111658594e+05
    6.8235352635e-02    1.0111671094e+05
    6.8245619535e-02    1.0111524219e+05
    6.8255543709e-02    1.0111552344e+05
    6.8265467882e-02    1.0111571875e+05
    6.8275392056e-02    1.0111580469e+05
    6.8285658956e-02    1.0111427344e+05
    6.8295583129e-02    1.0111461719e+05
    6.8305514753e-02    1.0111466406e+05
    6.8315438926e-02    1.0111480469e+05
    6.8325363100e-02    1.0111500781e+05
    6.8335630000e-02    1.0111508594e+05
    6.8345554173e-02    1.0111453906e+05
    6.8355485797e-02    1.0111389844e+05
    6.8365409970e-02    1.0111402344e+05
    6.8375334144e-02    1.0111267969e+05
    6.8385601044e-02    1.0111232031e+05
    6.8395525217e-02    1.0111253125e+05
    6.8405456841e-02    1.0111271875e+05
    6.8415381014e-02    1.0111274219e+05
    6.8425647914e-02    1.0111307031e+05
    6.8435572088e-02    1.0111321094e+05
    6.8445503712e-02    1.0111336719e+05
    6.8455427885e-02    1.0111346875e+05
    6.8465352058e-02    1.0111365625e+05
    6.8475626409e-02    1.0111363281e+05
    6.8485550582e-02    1.0111391406e+05
    6.8495482206e-02    1.0111402344e+05
    6.8505406380e-02    1.0111416406e+05
    6.8515330553e-02    1.0111434375e+05
    6.8525604904e-02    1.0111449219e+05
    6.8535529077e-02    1.0111466406e+05
    6.8545460701e-02    1.0111483594e+05
    6.8555384874e-02    1.0111489844e+05
    6.8565316498e-02    1.0111500781e+05
    6.8575583398e-02    1.0111510156e+05
    6.8585507572e-02    1.0111521875e+05
    6.8595439196e-02    1.0111528906e+05
    6.8605363369e-02    1.0111535156e+05
    6.8615637720e-02    1.0111544531e+05
    6.8625561893e-02    1.0111541406e+05
    6.8635493517e-02    1.0111524219e+05
    6.8645417690e-02    1.0111514844e+05
    6.8655349314e-02    1.0111513281e+05
    6.8665616214e-02    1.0111511719e+05
    6.8675547838e-02    1.0111535156e+05
    6.8685472012e-02    1.0111539844e+05
    6.8695403636e-02    1.0111550781e+05
    6.8705327809e-02    1.0111538281e+05
    6.8715602160e-02    1.0111524219e+05
    6.8725533783e-02    1.0111518750e+05
    6.8735457957e-02    1.0111528906e+05
    6.8745389581e-02    1.0111518750e+05
    6.8755321205e-02    1.0111516406e+05
    6.8765588105e-02    1.0111537500e+05
    6.8775519729e-02    1.0111539844e+05
    6.8785451353e-02    1.0111538281e+05
    6.8795375526e-02    1.0111539844e+05
    6.8805307150e-02    1.0111558594e+05
    6.8815581501e-02    1.0111575000e+05
    6.8825513124e-02    1.0111584375e+05
    6.8835444748e-02    1.0111589844e+05
    6.8845376372e-02    1.0111600000e+05
    6.8855307996e-02    1.0111621094e+05
    6.8865582347e-02    1.0111628125e+05
    6.8875513971e-02    1.0111642969e+05
    6.8885453045e-02    1.0111650000e+05
    6.8895384669e-02    1.0111664844e+05
    6.8905316293e-02    1.0111682031e+05
    6.8915590644e-02    1.0111691406e+05
    6.8925522268e-02    1.0111702344e+05
    6.8935453892e-02    1.0111719531e+05
    6.8945392966e-02    1.0111733594e+05
    6.8955324590e-02    1.0111747656e+05
    6.8965256214e-02    1.0111771094e+05
    6.8975530565e-02    1.0111778906e+05
    6.8985462189e-02    1.0111796875e+05
    6.8995401263e-02    1.0111810156e+05
    6.9005332887e-02    1.0111814844e+05
    6.9015264511e-02    1.0111822656e+05
    6.9025546312e-02    1.0111838281e+05
    6.9035477936e-02    1.0111841406e+05
    6.9045409560e-02    1.0111852344e+05
    6.9055348635e-02    1.0111860156e+05
    6.9065280259e-02    1.0111872656e+05
    6.9075554609e-02    1.0111875000e+05
    6.9085493684e-02    1.0111884375e+05
    6.9095425308e-02    1.0111897656e+05
    6.9105356932e-02    1.0111893750e+05
    6.9115296006e-02    1.0111891406e+05
    6.9125570357e-02    1.0111891406e+05
    6.9135509431e-02    1.0111887500e+05
    6.9145441055e-02    1.0111881250e+05
    6.9155380130e-02    1.0111886719e+05
    6.9165311754e-02    1.0111877344e+05
    6.9175250828e-02    1.0111835156e+05
    6.9185525179e-02    1.0111834375e+05
    6.9195464253e-02    1.0111817969e+05
    6.9205403328e-02    1.0111806250e+05
    6.9215334952e-02    1.0111802344e+05
    6.9225274026e-02    1.0111796094e+05
    6.9235555828e-02    1.0111761719e+05
    6.9245487452e-02    1.0111735156e+05
    6.9255426526e-02    1.0111734375e+05
    6.9265365601e-02    1.0111753906e+05
    6.9275297225e-02    1.0111760156e+05
    6.9285236299e-02    1.0111771094e+05
    6.9295518100e-02    1.0111816406e+05
    6.9305449724e-02    1.0111831250e+05
    6.9315388799e-02    1.0111844531e+05
    6.9325327873e-02    1.0111860156e+05
    6.9335259497e-02    1.0111869531e+05
    6.9345541298e-02    1.0111885156e+05
    6.9355480373e-02    1.0111900781e+05
    6.9365411997e-02    1.0111910156e+05
    6.9375351071e-02    1.0111932031e+05
    6.9385290146e-02    1.0111950781e+05
    6.9395229220e-02    1.0111991406e+05
    6.9405503571e-02    1.0112009375e+05
    6.9415442646e-02    1.0112033594e+05
    6.9425381720e-02    1.0112043750e+05
    6.9435320795e-02    1.0112052344e+05
    6.9445259869e-02    1.0112089844e+05
    6.9455191493e-02    1.0112096094e+05
    6.9465473294e-02    1.0112100000e+05
    6.9475412369e-02    1.0112116406e+05
    6.9485351443e-02    1.0112121875e+05
    6.9495283067e-02    1.0112137500e+05
    6.9505222142e-02    1.0112158594e+05
    6.9515503943e-02    1.0112184375e+05
    6.9525443017e-02    1.0112196875e+05
    6.9535382092e-02    1.0112213281e+05
    6.9545313716e-02    1.0112210156e+05
    6.9555252790e-02    1.0112234375e+05
    6.9565191865e-02    1.0112246875e+05
    6.9575473666e-02    1.0112263281e+05
    6.9585412741e-02    1.0112290625e+05
    6.9595351815e-02    1.0112315625e+05
    6.9605290890e-02    1.0112332031e+05
    6.9615229964e-02    1.0112371875e+05
    6.9625169039e-02    1.0112372656e+05
    6.9635450840e-02    1.0112393750e+05
    6.9645389915e-02    1.0112391406e+05
    6.9655321538e-02    1.0112378906e+05
    6.9665260613e-02    1.0112386719e+05
    6.9675199687e-02    1.0112403906e+05
    6.9685481489e-02    1.0112389844e+05
    6.9695420563e-02    1.0112403906e+05
    6.9705359638e-02    1.0112400000e+05
    6.9715298712e-02    1.0112421875e+05
    6.9725237787e-02    1.0112383594e+05
    6.9735176861e-02    1.0112225000e+05
    6.9745458663e-02    1.0112216406e+05
    6.9755397737e-02    1.0112235156e+05
    6.9765336812e-02    1.0112249219e+05
    6.9775275886e-02    1.0112278906e+05
    6.9785214961e-02    1.0112278906e+05
    6.9795154035e-02    1.0112272656e+05
    6.9805435836e-02    1.0112290625e+05
    6.9815382361e-02    1.0112300781e+05
    6.9825321436e-02    1.0112221094e+05
    6.9835260510e-02    1.0112207031e+05
    6.9845199585e-02    1.0112141406e+05
    6.9855138659e-02    1.0112043750e+05
    6.9865420461e-02    1.0112056250e+05
    6.9875359535e-02    1.0112060156e+05
    6.9885298610e-02    1.0111937500e+05
    6.9895237684e-02    1.0111903906e+05
    6.9905176759e-02    1.0111911719e+05
    6.9915458560e-02    1.0111863281e+05
    6.9925405085e-02    1.0111871094e+05
    6.9935344160e-02    1.0111874219e+05
    6.9945283234e-02    1.0111872656e+05
    6.9955222309e-02    1.0111737500e+05
    6.9965161383e-02    1.0111714844e+05
    6.9975443184e-02    1.0111735156e+05
    6.9985382259e-02    1.0111746094e+05
    6.9995321333e-02    1.0111739844e+05
endcurve
