Curveplot
LS-DYNA keyword deck by LS-PrePost                          
Time
Pressure
Defined Connection
Pressure @ 55 #pts=7001
* Minval=     9.1659195312e+04 at time=         0.0357398987
* Maxval=     1.3256618750e+05 at time=         0.0218200237
    0.0000000000e+00    1.0119997656e+05
    9.9483804661e-06    1.0119997656e+05
    1.9993580281e-05    1.0119997656e+05
    2.9991337215e-05    1.0119997656e+05
    3.9972121158e-05    1.0119997656e+05
    4.9950773246e-05    1.0119997656e+05
    5.9993370087e-05    1.0119997656e+05
    6.9975096267e-05    1.0119997656e+05
    7.9978381109e-05    1.0119997656e+05
    8.9948996902e-05    1.0119997656e+05
    9.9943623354e-05    1.0119997656e+05
    1.0994826152e-04    1.0119997656e+05
    1.1995078239e-04    1.0120002344e+05
    1.2994052668e-04    1.0120000781e+05
    1.3998252689e-04    1.0120002344e+05
    1.4999171253e-04    1.0120019531e+05
    1.5995635476e-04    1.0120022656e+05
    1.6994576436e-04    1.0120019531e+05
    1.7995250528e-04    1.0120019531e+05
    1.8996889412e-04    1.0120021094e+05
    1.9998700009e-04    1.0120019531e+05
    2.0999861590e-04    1.0119997656e+05
    2.1999560704e-04    1.0120015625e+05
    2.2996972257e-04    1.0120000000e+05
    2.3991272610e-04    1.0120022656e+05
    2.4990833481e-04    1.0120034375e+05
    2.5995151373e-04    1.0120047656e+05
    2.6994047221e-04    1.0119997656e+05
    2.7995355777e-04    1.0119996094e+05
    2.8997971094e-04    1.0120002344e+05
    2.9991945485e-04    1.0119990625e+05
    3.0996589339e-04    1.0119972656e+05
    3.1992024742e-04    1.0119996094e+05
    3.2997969538e-04    1.0120015625e+05
    3.3994112164e-04    1.0120015625e+05
    3.4990292625e-04    1.0120014844e+05
    3.5996743827e-04    1.0119988281e+05
    3.6992528476e-04    1.0119994531e+05
    3.7998461630e-04    1.0119997656e+05
    3.8993224734e-04    1.0120012500e+05
    3.9998014108e-04    1.0120012500e+05
    4.0991045535e-04    1.0120035156e+05
    4.1993995546e-04    1.0119984375e+05
    4.2995819240e-04    1.0119996094e+05
    4.3996350723e-04    1.0120002344e+05
    4.4995380449e-04    1.0120002344e+05
    4.5992748346e-04    1.0119983594e+05
    4.6999883489e-04    1.0119950781e+05
    4.7993427143e-04    1.0119991406e+05
    4.8996572150e-04    1.0119971094e+05
    4.9997516908e-04    1.0119966406e+05
    5.0996057689e-04    1.0119978906e+05
    5.1991996588e-04    1.0119953906e+05
    5.2997464081e-04    1.0119941406e+05
    5.3987733554e-04    1.0119940625e+05
    5.4999912390e-04    1.0119943750e+05
    5.5996509036e-04    1.0119960156e+05
    5.6989747100e-04    1.0119941406e+05
    5.7992315851e-04    1.0119943750e+05
    5.8991368860e-04    1.0119949219e+05
    5.9999810765e-04    1.0119964844e+05
    6.0991250211e-04    1.0119946094e+05
    6.1991909752e-04    1.0119934375e+05
    6.2988395803e-04    1.0119928906e+05
    6.3994148513e-04    1.0119961719e+05
    6.4995518187e-04    1.0119978906e+05
    6.5992277814e-04    1.0119959375e+05
    6.6998222610e-04    1.0119959375e+05
    6.7999324529e-04    1.0119965625e+05
    6.8995356560e-04    1.0119958594e+05
    6.9986045128e-04    1.0119972656e+05
    7.0985709317e-04    1.0119964844e+05
    7.1994465543e-04    1.0119985156e+05
    7.2997657117e-04    1.0120014844e+05
    7.3995010462e-04    1.0120042969e+05
    7.4986234540e-04    1.0120016406e+05
    7.5986306183e-04    1.0120037500e+05
    7.6995335985e-04    1.0120016406e+05
    7.7997980407e-04    1.0120016406e+05
    7.8993954230e-04    1.0120009375e+05
    7.9998729052e-04    1.0120000781e+05
    8.0996524775e-04    1.0119996094e+05
    8.1987032900e-04    1.0119996094e+05
    8.2986149937e-04    1.0120025000e+05
    8.3994021406e-04    1.0120021094e+05
    8.4994250210e-04    1.0120002344e+05
    8.5986568592e-04    1.0120022656e+05
    8.6987396935e-04    1.0120040625e+05
    8.7996863294e-04    1.0120025000e+05
    8.8998035062e-04    1.0120025000e+05
    8.9990586275e-04    1.0119991406e+05
    9.0991519392e-04    1.0119953906e+05
    9.1983447783e-04    1.0119925781e+05
    9.2983682407e-04    1.0119931250e+05
    9.3992328038e-04    1.0119943750e+05
    9.4991567312e-04    1.0119935156e+05
    9.5999141922e-04    1.0119931250e+05
    9.6996943466e-04    1.0119918750e+05
    9.7984599415e-04    1.0119953906e+05
    9.8998867907e-04    1.0119961719e+05
    9.9984265398e-04    1.0119944531e+05
    1.0099647334e-03    1.0119959375e+05
    1.0199806420e-03    1.0119946094e+05
    1.0298871202e-03    1.0119942969e+05
    1.0398735758e-03    1.0119960156e+05
    1.0499405907e-03    1.0119965625e+05
    1.0598939843e-03    1.0119961719e+05
    1.0699266568e-03    1.0119942969e+05
    1.0798418662e-03    1.0119934375e+05
    1.0898358887e-03    1.0119935156e+05
    1.0999093065e-03    1.0119927344e+05
    1.1098603718e-03    1.0119932031e+05
    1.1198900174e-03    1.0119932031e+05
    1.1299996404e-03    1.0119914844e+05
    1.1399823707e-03    1.0119902344e+05
    1.1498330859e-03    1.0119893750e+05
    1.1599723948e-03    1.0119889844e+05
    1.1699802708e-03    1.0119919531e+05
    1.1798506603e-03    1.0119921875e+05
    1.1897982331e-03    1.0119913281e+05
    1.1998238042e-03    1.0119921094e+05
    1.2099291198e-03    1.0119922656e+05
    1.2198914774e-03    1.0119933594e+05
    1.2299316004e-03    1.0119933594e+05
    1.2398248073e-03    1.0119922656e+05
    1.2497951975e-03    1.0119928906e+05
    1.2598437024e-03    1.0119922656e+05
    1.2699713698e-03    1.0119939844e+05
    1.2799471151e-03    1.0119910156e+05
    1.2897651177e-03    1.0119916406e+05
    1.2998933671e-03    1.0119922656e+05
    1.3098634081e-03    1.0119933594e+05
    1.3199110981e-03    1.0119921875e+05
    1.3297955738e-03    1.0119915625e+05
    1.3397561852e-03    1.0119915625e+05
    1.3497956097e-03    1.0119911719e+05
    1.3599150116e-03    1.0119914844e+05
    1.3698631665e-03    1.0119922656e+05
    1.3798894361e-03    1.0119927344e+05
    1.3899926562e-03    1.0119899219e+05
    1.3999202056e-03    1.0119872656e+05
    1.4099251712e-03    1.0119860156e+05
    1.4197486453e-03    1.0119878906e+05
    1.4299093746e-03    1.0119875000e+05
    1.4398873318e-03    1.0119871094e+05
    1.4499423560e-03    1.0119861719e+05
    1.4598087873e-03    1.0119864844e+05
    1.4697521692e-03    1.0119872656e+05
    1.4797732001e-03    1.0119872656e+05
    1.4898723457e-03    1.0119844531e+05
    1.4997752151e-03    1.0119853906e+05
    1.5097561991e-03    1.0119858594e+05
    1.5198145993e-03    1.0119858594e+05
    1.5299526276e-03    1.0119864844e+05
    1.5398875112e-03    1.0119871094e+05
    1.5498996945e-03    1.0119872656e+05
    1.5599917388e-03    1.0119877344e+05
    1.5698722564e-03    1.0119894531e+05
    1.5798306558e-03    1.0119906250e+05
    1.5898670536e-03    1.0119902344e+05
    1.5999842435e-03    1.0119889844e+05
    1.6098814085e-03    1.0119890625e+05
    1.6198569210e-03    1.0119897656e+05
    1.6299117124e-03    1.0119903906e+05
    1.6397397267e-03    1.0119885156e+05
    1.6499555204e-03    1.0119877344e+05
    1.6599419760e-03    1.0119884375e+05
    1.6696930397e-03    1.0119896094e+05
    1.6798393335e-03    1.0119874219e+05
    1.6897476744e-03    1.0119864844e+05
    1.6997359926e-03    1.0119864844e+05
    1.7098051030e-03    1.0119853906e+05
    1.7199567519e-03    1.0119831250e+05
    1.7298616003e-03    1.0119821094e+05
    1.7398463096e-03    1.0119739844e+05
    1.7499133246e-03    1.0119746875e+05
    1.7597234109e-03    1.0119739844e+05
    1.7699559685e-03    1.0119746875e+05
    1.7799297348e-03    1.0119749219e+05
    1.7899861559e-03    1.0119753906e+05
    1.7997755203e-03    1.0119753906e+05
    1.8096452113e-03    1.0119761719e+05
    1.8199530896e-03    1.0119760156e+05
    1.8299903022e-03    1.0119763281e+05
    1.8397495151e-03    1.0119766406e+05
    1.8499556463e-03    1.0119761719e+05
    1.8598808674e-03    1.0119756250e+05
    1.8698900240e-03    1.0119756250e+05
    1.8799847458e-03    1.0119778906e+05
    1.8897883128e-03    1.0119775781e+05
    1.8996745348e-03    1.0119778906e+05
    1.9096453907e-03    1.0119772656e+05
    1.9197025103e-03    1.0119789844e+05
    1.9298477564e-03    1.0119789844e+05
    1.9396876451e-03    1.0119796094e+05
    1.9496126333e-03    1.0119797656e+05
    1.9596244674e-03    1.0119789844e+05
    1.9697253592e-03    1.0119789844e+05
    1.9799170550e-03    1.0119800781e+05
    1.9897883758e-03    1.0119793750e+05
    1.9997470081e-03    1.0119791406e+05
    2.0097955130e-03    1.0119789844e+05
    2.0199352875e-03    1.0119790625e+05
    2.0297404844e-03    1.0119796875e+05
    2.0396334585e-03    1.0119792969e+05
    2.0496093202e-03    1.0119789844e+05
    2.0596405957e-03    1.0119787500e+05
    2.0697158761e-03    1.0119800781e+05
    2.0798309706e-03    1.0119789844e+05
    2.0899875090e-03    1.0119778906e+05
    2.0997188985e-03    1.0119758594e+05
    2.1098928992e-03    1.0119753125e+05
    2.1196508314e-03    1.0119758594e+05
    2.1298860665e-03    1.0119741406e+05
    2.1396456286e-03    1.0119756250e+05
    2.1498810966e-03    1.0119750000e+05
    2.1596371662e-03    1.0119750781e+05
    2.1698563360e-03    1.0119747656e+05
    2.1796312649e-03    1.0119746094e+05
    2.1898385603e-03    1.0119746875e+05
    2.1996116266e-03    1.0119746875e+05
    2.2097944748e-03    1.0119743750e+05
    2.2199896630e-03    1.0119728906e+05
    2.2297408432e-03    1.0119708594e+05
    2.2399099544e-03    1.0119696875e+05
    2.2496480960e-03    1.0119696094e+05
    2.2598607466e-03    1.0119696094e+05
    2.2696573287e-03    1.0119646094e+05
    2.2798993159e-03    1.0119639844e+05
    2.2896388546e-03    1.0119661719e+05
    2.2997800261e-03    1.0119663281e+05
    2.3095712531e-03    1.0119658594e+05
    2.3197825067e-03    1.0119653906e+05
    2.3295776919e-03    1.0119650781e+05
    2.3398457561e-03    1.0119664844e+05
    2.3496942595e-03    1.0119666406e+05
    2.3595783859e-03    1.0119672656e+05
    2.3698851001e-03    1.0119678125e+05
    2.3797953036e-03    1.0119692969e+05
    2.3897076026e-03    1.0119700781e+05
    2.3996329401e-03    1.0119710156e+05
    2.4099929724e-03    1.0119718750e+05
    2.4199262261e-03    1.0119727344e+05
    2.4298618082e-03    1.0119735156e+05
    2.4397983216e-03    1.0119746094e+05
    2.4497094564e-03    1.0119746094e+05
    2.4595861323e-03    1.0119732031e+05
    2.4699091446e-03    1.0119730469e+05
    2.4797332007e-03    1.0119727344e+05
    2.4899772834e-03    1.0119736719e+05
    2.4997186847e-03    1.0119733594e+05
    2.5098470505e-03    1.0119744531e+05
    2.5199002121e-03    1.0119755469e+05
    2.5298784021e-03    1.0119767969e+05
    2.5397825520e-03    1.0119782031e+05
    2.5496135931e-03    1.0119803906e+05
    2.5597957429e-03    1.0119827344e+05
    2.5699008256e-03    1.0119839844e+05
    2.5799300056e-03    1.0119846094e+05
    2.5898844469e-03    1.0119864844e+05
    2.5997653138e-03    1.0119878906e+05
    2.6099802926e-03    1.0119885156e+05
    2.6197133120e-03    1.0119753125e+05
    2.6297764853e-03    1.0119750781e+05
    2.6397637557e-03    1.0119763281e+05
    2.6496758219e-03    1.0119766406e+05
    2.6599061675e-03    1.0119766406e+05
    2.6696682908e-03    1.0119772656e+05
    2.6797445025e-03    1.0119772656e+05
    2.6897434145e-03    1.0119772656e+05
    2.6996661909e-03    1.0119766406e+05
    2.7098907158e-03    1.0119775781e+05
    2.7196609881e-03    1.0119775000e+05
    2.7297285851e-03    1.0119782031e+05
    2.7397177182e-03    1.0119787500e+05
    2.7499948628e-03    1.0119797656e+05
    2.7598268352e-03    1.0119806250e+05
    2.7699426282e-03    1.0119811719e+05
    2.7799771633e-03    1.0119753906e+05
    2.7899320703e-03    1.0119728906e+05
    2.7998071164e-03    1.0119749219e+05
    2.8099527117e-03    1.0119747656e+05
    2.8196685016e-03    1.0119752344e+05
    2.8299929108e-03    1.0119761719e+05
    2.8398891445e-03    1.0119760156e+05
    2.8497038875e-03    1.0119753906e+05
    2.8597714845e-03    1.0119736719e+05
    2.8697527014e-03    1.0119734375e+05
    2.8799762949e-03    1.0119750781e+05
    2.8897835873e-03    1.0119739844e+05
    2.8998283669e-03    1.0119755469e+05
    2.9097832739e-03    1.0119742969e+05
    2.9199651908e-03    1.0119765625e+05
    2.9297384899e-03    1.0119771094e+05
    2.9397336766e-03    1.0119784375e+05
    2.9499426018e-03    1.0119796875e+05
    2.9597471002e-03    1.0119792969e+05
    2.9697602149e-03    1.0119784375e+05
    2.9799730983e-03    1.0119783594e+05
    2.9897852801e-03    1.0119783594e+05
    2.9997918755e-03    1.0119777344e+05
    3.0099833384e-03    1.0119789844e+05
    3.0197780579e-03    1.0119777344e+05
    3.0297518242e-03    1.0119775781e+05
    3.0398950912e-03    1.0119771875e+05
    3.0499212444e-03    1.0119783594e+05
    3.0598302837e-03    1.0119785156e+05
    3.0698920600e-03    1.0119784375e+05
    3.0798292719e-03    1.0119772656e+05
    3.0899050180e-03    1.0119772656e+05
    3.0998487491e-03    1.0119756250e+05
    3.1099151820e-03    1.0119775000e+05
    3.1198409852e-03    1.0119760156e+05
    3.1298734248e-03    1.0119760156e+05
    3.1400003936e-03    1.0119750781e+05
    3.1499671750e-03    1.0119761719e+05
    3.1597721390e-03    1.0119761719e+05
    3.1698795501e-03    1.0119752344e+05
    3.1798044220e-03    1.0119764844e+05
    3.1899919268e-03    1.0119752344e+05
    3.1999724451e-03    1.0119733594e+05
    3.2099562231e-03    1.0119721094e+05
    3.2199234702e-03    1.0119733594e+05
    3.2298527658e-03    1.0119725000e+05
    3.2399187330e-03    1.0119722656e+05
    3.2498841174e-03    1.0119722656e+05
    3.2599042170e-03    1.0119744531e+05
    3.2699226867e-03    1.0119746875e+05
    3.2798734028e-03    1.0119744531e+05
    3.2900029328e-03    1.0119740625e+05
    3.2999995165e-03    1.0119735156e+05
    3.3099653665e-03    1.0119746094e+05
    3.3199251629e-03    1.0119740625e+05
    3.3299291972e-03    1.0119736719e+05
    3.3399364911e-03    1.0119712500e+05
    3.3499025740e-03    1.0119761719e+05
    3.3599163871e-03    1.0119768750e+05
    3.3698980696e-03    1.0119775781e+05
    3.3798632212e-03    1.0119772656e+05
    3.3899613190e-03    1.0119771094e+05
    3.3999239095e-03    1.0119756250e+05
    3.4098525066e-03    1.0119756250e+05
    3.4198861104e-03    1.0119746875e+05
    3.4299604595e-03    1.0119752344e+05
    3.4399675205e-03    1.0119759375e+05
    3.4498765599e-03    1.0119771094e+05
    3.4599027131e-03    1.0119778906e+05
    3.4699155949e-03    1.0119796094e+05
    3.4799834248e-03    1.0119772656e+05
    3.4899939783e-03    1.0119759375e+05
    3.4998853225e-03    1.0119738281e+05
    3.5098872613e-03    1.0119731250e+05
    3.5199560225e-03    1.0119728906e+05
    3.5299267620e-03    1.0119721094e+05
    3.5399633925e-03    1.0119653906e+05
    3.5498780198e-03    1.0119678906e+05
    3.5598541144e-03    1.0119684375e+05
    3.5698842257e-03    1.0119696094e+05
    3.5799962934e-03    1.0119681250e+05
    3.5899369977e-03    1.0119671094e+05
    3.5999696702e-03    1.0119666406e+05
    3.6098246928e-03    1.0119639844e+05
    3.6199535243e-03    1.0119565625e+05
    3.6299058702e-03    1.0119583594e+05
    3.6399306264e-03    1.0119567969e+05
    3.6500019487e-03    1.0119547656e+05
    3.6598828156e-03    1.0119571094e+05
    3.6698374897e-03    1.0119578125e+05
    3.6798112560e-03    1.0119456250e+05
    3.6898446269e-03    1.0119328125e+05
    3.6999129225e-03    1.0119189844e+05
    3.7097951863e-03    1.0119207031e+05
    3.7199503276e-03    1.0119177344e+05
    3.7299138494e-03    1.0119202344e+05
    3.7399337161e-03    1.0119221875e+05
    3.7499694154e-03    1.0119230469e+05
    3.7598300260e-03    1.0119227344e+05
    3.7699546665e-03    1.0119260156e+05
    3.7798655685e-03    1.0119277344e+05
    3.7898495793e-03    1.0119288281e+05
    3.7998314947e-03    1.0119283594e+05
    3.8098616060e-03    1.0119303906e+05
    3.8199382834e-03    1.0119228906e+05
    3.8299979642e-03    1.0119189844e+05
    3.8399314508e-03    1.0119178906e+05
    3.8498251233e-03    1.0119102344e+05
    3.8600098342e-03    1.0119088281e+05
    3.8700087462e-03    1.0119077344e+05
    3.8799699396e-03    1.0119077344e+05
    3.8898163475e-03    1.0118969531e+05
    3.8998513483e-03    1.0118964844e+05
    3.9099249989e-03    1.0118977344e+05
    3.9198375307e-03    1.0118997656e+05
    3.9299577475e-03    1.0118997656e+05
    3.9399033412e-03    1.0119006250e+05
    3.9498638362e-03    1.0119010156e+05
    3.9598373696e-03    1.0119021875e+05
    3.9698700421e-03    1.0119044531e+05
    3.9798994549e-03    1.0119059375e+05
    3.9899600670e-03    1.0119081250e+05
    3.9998157881e-03    1.0119121094e+05
    4.0099164471e-03    1.0119127344e+05
    4.0198108181e-03    1.0119155469e+05
    4.0299813263e-03    1.0119190625e+05
    4.0399217978e-03    1.0119216406e+05
    4.0498767048e-03    1.0119235156e+05
    4.0598427877e-03    1.0119250781e+05
    4.0698284283e-03    1.0119257031e+05
    4.0798308328e-03    1.0119275781e+05
    4.0898500010e-03    1.0119289844e+05
    4.0998854674e-03    1.0119309375e+05
    4.1099321097e-03    1.0119321094e+05
    4.1199913248e-03    1.0119341406e+05
    4.1298214346e-03    1.0119352344e+05
    4.1399006732e-03    1.0119367969e+05
    4.1499729268e-03    1.0119383594e+05
    4.1597993113e-03    1.0119175000e+05
    4.1698827408e-03    1.0119196875e+05
    4.1799736209e-03    1.0119203125e+05
    4.1898204945e-03    1.0119228906e+05
    4.1999123059e-03    1.0119233594e+05
    4.2100050487e-03    1.0119246094e+05
    4.2198523879e-03    1.0119239844e+05
    4.2299488559e-03    1.0119239844e+05
    4.2397975922e-03    1.0119243750e+05
    4.2498912662e-03    1.0119247656e+05
    4.2599844746e-03    1.0119266406e+05
    4.2698313482e-03    1.0119241406e+05
    4.2799250223e-03    1.0119240625e+05
    4.2897718959e-03    1.0119236719e+05
    4.2998637073e-03    1.0119242969e+05
    4.3099550530e-03    1.0119243750e+05
    4.3198005296e-03    1.0119239844e+05
    4.3298914097e-03    1.0119241406e+05
    4.3399813585e-03    1.0119127344e+05
    4.3498221785e-03    1.0119000000e+05
    4.3599079363e-03    1.0118993750e+05
    4.3699964881e-03    1.0118988281e+05
    4.3798391707e-03    1.0118994531e+05
    4.3899286538e-03    1.0118933594e+05
    4.3997690082e-03    1.0118910156e+05
    4.4098575599e-03    1.0118896875e+05
    4.4199563563e-03    1.0118799219e+05
    4.4298139401e-03    1.0118797656e+05
    4.4399066828e-03    1.0118771094e+05
    4.4500092044e-03    1.0118765625e+05
    4.4598802924e-03    1.0118778125e+05
    4.4700093567e-03    1.0118753906e+05
    4.4798972085e-03    1.0118739844e+05
    4.4897915795e-03    1.0118756250e+05
    4.4999402016e-03    1.0118761719e+05
    4.5098573901e-03    1.0118768750e+05
    4.5197801664e-03    1.0118750000e+05
    4.5299651101e-03    1.0118767969e+05
    4.5398902148e-03    1.0118796094e+05
    4.5498316176e-03    1.0118818750e+05
    4.5597925782e-03    1.0118842969e+05
    4.5697796158e-03    1.0118889844e+05
    4.5797699131e-03    1.0118918750e+05
    4.5900018886e-03    1.0118946875e+05
    4.5999870636e-03    1.0118971875e+05
    4.6099978499e-03    1.0118991406e+05
    4.6200049110e-03    1.0118996094e+05
    4.6300138347e-03    1.0119011719e+05
    4.6397866681e-03    1.0119019531e+05
    4.6498323791e-03    1.0119028906e+05
    4.6598841436e-03    1.0119046875e+05
    4.6699428931e-03    1.0119059375e+05
    4.6799993142e-03    1.0119064844e+05
    4.6898038127e-03    1.0119087500e+05
    4.6998625621e-03    1.0119103906e+05
    4.7099441290e-03    1.0119121094e+05
    4.7197816893e-03    1.0119117969e+05
    4.7298581339e-03    1.0119127344e+05
    4.7399452887e-03    1.0119150000e+05
    4.7498131171e-03    1.0119155469e+05
    4.7599412501e-03    1.0119158594e+05
    4.7698118724e-03    1.0119181250e+05
    4.7799283639e-03    1.0119183594e+05
    4.7898092307e-03    1.0119190625e+05
    4.7999490052e-03    1.0119203906e+05
    4.8098433763e-03    1.0119189844e+05
    4.8199887387e-03    1.0119200000e+05
    4.8298793845e-03    1.0119189844e+05
    4.8397742212e-03    1.0119197656e+05
    4.8499382101e-03    1.0119200000e+05
    4.8598512076e-03    1.0119206250e+05
    4.8700142652e-03    1.0119213281e+05
    4.8799188808e-03    1.0119225000e+05
    4.8898295499e-03    1.0119228125e+05
    4.9000014551e-03    1.0119230469e+05
    4.9099205062e-03    1.0119231250e+05
    4.9198376946e-03    1.0119216406e+05
    4.9300086685e-03    1.0119216406e+05
    4.9399267882e-03    1.0119209375e+05
    4.9498472363e-03    1.0119197656e+05
    4.9597662874e-03    1.0119191406e+05
    4.9699372612e-03    1.0119178125e+05
    4.9798530526e-03    1.0119166406e+05
    4.9897693098e-03    1.0119160156e+05
    4.9999440089e-03    1.0119160156e+05
    5.0098625943e-03    1.0119150000e+05
    5.0197807141e-03    1.0119150000e+05
    5.0299516879e-03    1.0119133594e+05
    5.0398716703e-03    1.0119108594e+05
    5.0497935154e-03    1.0119094531e+05
    5.0599672832e-03    1.0119085156e+05
    5.0698858686e-03    1.0119085156e+05
    5.0798035227e-03    1.0119100000e+05
    5.0899782218e-03    1.0119109375e+05
    5.0999000669e-03    1.0119108594e+05
    5.1098209806e-03    1.0119115625e+05
    5.1199952140e-03    1.0119122656e+05
    5.1299156621e-03    1.0119124219e+05
    5.1398365758e-03    1.0119128906e+05
    5.1500103436e-03    1.0119153906e+05
    5.1599275321e-03    1.0119153906e+05
    5.1698451862e-03    1.0119164844e+05
    5.1797763444e-03    1.0119181250e+05
    5.1899603568e-03    1.0119191406e+05
    5.1998859271e-03    1.0119180469e+05
    5.2098096348e-03    1.0119186719e+05
    5.2199843340e-03    1.0119200781e+05
    5.2299113013e-03    1.0119192969e+05
    5.2398541011e-03    1.0119203906e+05
    5.2498024888e-03    1.0119209375e+05
    5.2600046620e-03    1.0119200781e+05
    5.2699502558e-03    1.0119185156e+05
    5.2798935212e-03    1.0119189844e+05
    5.2898339927e-03    1.0119194531e+05
    5.2997735329e-03    1.0119180469e+05
    5.3099663928e-03    1.0119181250e+05
    5.3199077956e-03    1.0119189844e+05
    5.3298594430e-03    1.0119175781e+05
    5.3398120217e-03    1.0119185156e+05
    5.3500188515e-03    1.0119190625e+05
    5.3599718958e-03    1.0119192969e+05
    5.3699291311e-03    1.0119185156e+05
    5.3798835725e-03    1.0119189844e+05
    5.3898366168e-03    1.0119177344e+05
    5.3997882642e-03    1.0119199219e+05
    5.4099960253e-03    1.0119196094e+05
    5.4199551232e-03    1.0119221094e+05
    5.4299156182e-03    1.0119222656e+05
    5.4398747161e-03    1.0119228125e+05
    5.4498324171e-03    1.0119243750e+05
    5.4597938433e-03    1.0119258594e+05
    5.4700165056e-03    1.0119283594e+05
    5.4799816571e-03    1.0119285156e+05
    5.4899454117e-03    1.0119297656e+05
    5.4999077693e-03    1.0119285156e+05
    5.5098724551e-03    1.0119289844e+05
    5.5198445916e-03    1.0119283594e+05
    5.5298190564e-03    1.0119281250e+05
    5.5397925898e-03    1.0119289844e+05
    5.5497684516e-03    1.0119305469e+05
    5.5599999614e-03    1.0119303906e+05
    5.5699720979e-03    1.0119310156e+05
    5.5799423717e-03    1.0119328906e+05
    5.5899117142e-03    1.0119321094e+05
    5.5998810567e-03    1.0119325781e+05
    5.6098597124e-03    1.0119339844e+05
    5.6198467501e-03    1.0119327344e+05
    5.6298328564e-03    1.0119339844e+05
    5.6398184970e-03    1.0119335156e+05
    5.6498069316e-03    1.0119341406e+05
    5.6597958319e-03    1.0119339844e+05
    5.6697833352e-03    1.0119336719e+05
    5.6797689758e-03    1.0119347656e+05
    5.6900102645e-03    1.0119346875e+05
    5.7000033557e-03    1.0119358594e+05
    5.7100011036e-03    1.0119358594e+05
    5.7199974544e-03    1.0119357031e+05
    5.7299924083e-03    1.0119341406e+05
    5.7399873622e-03    1.0119342969e+05
    5.7499809191e-03    1.0119335156e+05
    5.7599740103e-03    1.0119344531e+05
    5.7699661702e-03    1.0119344531e+05
    5.7799699716e-03    1.0119278906e+05
    5.7899849489e-03    1.0119058594e+05
    5.7999966666e-03    1.0119059375e+05
    5.8100055903e-03    1.0119078125e+05
    5.8200131170e-03    1.0119065625e+05
    5.8300225064e-03    1.0119077344e+05
    5.8397855610e-03    1.0119077344e+05
    5.8498070575e-03    1.0119065625e+05
    5.8598271571e-03    1.0118860156e+05
    5.8698458597e-03    1.0118847656e+05
    5.8798743412e-03    1.0118865625e+05
    5.8899112046e-03    1.0118866406e+05
    5.8999448083e-03    1.0118861719e+05
    5.9099770151e-03    1.0118850781e+05
    5.9200073592e-03    1.0118847656e+05
    5.9297895059e-03    1.0118864844e+05
    5.9398375452e-03    1.0118860156e+05
    5.9498841874e-03    1.0118881250e+05
    5.9599294327e-03    1.0118891406e+05
    5.9699760750e-03    1.0118875000e+05
    5.9797749855e-03    1.0118899219e+05
    5.9898328036e-03    1.0118905469e+05
    5.9998887591e-03    1.0118903906e+05
    6.0099442489e-03    1.0118921094e+05
    6.0200025328e-03    1.0118846094e+05
    6.0298098251e-03    1.0118628125e+05
    6.0398741625e-03    1.0118637500e+05
    6.0499375686e-03    1.0118641406e+05
    6.0600014403e-03    1.0118632031e+05
    6.0698119923e-03    1.0118636719e+05
    6.0798823833e-03    1.0118639844e+05
    6.0899513774e-03    1.0118650000e+05
    6.1000189744e-03    1.0118643750e+05
    6.1098271981e-03    1.0118642969e+05
    6.1198980547e-03    1.0118647656e+05
    6.1299777590e-03    1.0118655469e+05
    6.1397985555e-03    1.0118656250e+05
    6.1498773284e-03    1.0118660156e+05
    6.1599551700e-03    1.0118649219e+05
    6.1697778292e-03    1.0118646094e+05
    6.1798584647e-03    1.0118644531e+05
    6.1899386346e-03    1.0118647656e+05
    6.2000183389e-03    1.0118635156e+05
    6.2098475173e-03    1.0118617969e+05
    6.2199383974e-03    1.0118632031e+05
    6.2300269492e-03    1.0118630469e+05
    6.2398561276e-03    1.0118649219e+05
    6.2499428168e-03    1.0118662500e+05
    6.2597738579e-03    1.0118663281e+05
    6.2698652036e-03    1.0118660156e+05
    6.2799560837e-03    1.0118640625e+05
    6.2897866592e-03    1.0118657031e+05
    6.2998849899e-03    1.0118665625e+05
    6.3099907711e-03    1.0118678906e+05
    6.3198343851e-03    1.0118710156e+05
    6.3299355097e-03    1.0118719531e+05
    6.3397767954e-03    1.0118724219e+05
    6.3498802483e-03    1.0118725000e+05
    6.3599934801e-03    1.0118731250e+05
    6.3698487356e-03    1.0118728906e+05
    6.3799628988e-03    1.0118741406e+05
    6.3898176886e-03    1.0118731250e+05
    6.3999379054e-03    1.0118742969e+05
    6.4098024741e-03    1.0118746094e+05
    6.4199245535e-03    1.0118733594e+05
    6.4297853969e-03    1.0118749219e+05
    6.4399051480e-03    1.0118753906e+05
    6.4497715794e-03    1.0118757031e+05
    6.4599006437e-03    1.0118771875e+05
    6.4700278454e-03    1.0118781250e+05
    6.4798952080e-03    1.0118783594e+05
    6.4900228754e-03    1.0118789844e+05
    6.4999000169e-03    1.0118630469e+05
    6.5097799525e-03    1.0118435156e+05
    6.5199178644e-03    1.0118419531e+05
    6.5297950059e-03    1.0118438281e+05
    6.5399329178e-03    1.0118443750e+05
    6.5498170443e-03    1.0118468750e+05
    6.5599614754e-03    1.0118503125e+05
    6.5698446706e-03    1.0118497656e+05
    6.5799877048e-03    1.0118503125e+05
    6.5898750909e-03    1.0118510156e+05
    6.6000316292e-03    1.0118488281e+05
    6.6099246033e-03    1.0118491406e+05
    6.6198161803e-03    1.0118492969e+05
    6.6299661994e-03    1.0118508594e+05
    6.6398605704e-03    1.0118515625e+05
    6.6500296816e-03    1.0118537500e+05
    6.6599422134e-03    1.0118559375e+05
    6.6698533483e-03    1.0118566406e+05
    6.6800247878e-03    1.0118590625e+05
    6.6899349913e-03    1.0118619531e+05
    6.6998489201e-03    1.0118603906e+05
    6.7100231536e-03    1.0118622656e+05
    6.7199366167e-03    1.0118646094e+05
    6.7298500799e-03    1.0118652344e+05
    6.7400308326e-03    1.0118636719e+05
    6.7499484867e-03    1.0118646875e+05
    6.7598638125e-03    1.0118643750e+05
    6.7697791383e-03    1.0118640625e+05
    6.7799547687e-03    1.0118637500e+05
    6.7898812704e-03    1.0118422656e+05
    6.7998110317e-03    1.0118210156e+05
    6.8100001663e-03    1.0117941406e+05
    6.8199275993e-03    1.0117933594e+05
    6.8298587576e-03    1.0117964844e+05
    6.8398006260e-03    1.0117997656e+05
    6.8500032648e-03    1.0118010156e+05
    6.8599418737e-03    1.0118034375e+05
    6.8698795512e-03    1.0118031250e+05
    6.8798181601e-03    1.0118040625e+05
    6.8900249898e-03    1.0118046875e+05
    6.8999710493e-03    1.0118058594e+05
    6.9099157117e-03    1.0118110156e+05
    6.9198599085e-03    1.0118146094e+05
    6.9298110902e-03    1.0118175000e+05
    6.9397734478e-03    1.0118197656e+05
    6.9499975070e-03    1.0118221094e+05
    6.9599570706e-03    1.0118250781e+05
    6.9699161686e-03    1.0118278906e+05
    6.9798757322e-03    1.0118272656e+05
    6.9898422807e-03    1.0118287500e+05
    6.9998088293e-03    1.0118296094e+05
    7.0097735152e-03    1.0118294531e+05
    7.0199994370e-03    1.0118300000e+05
    7.0299659856e-03    1.0118321094e+05
    7.0399460383e-03    1.0118321094e+05
    7.0499293506e-03    1.0118321875e+05
    7.0599094033e-03    1.0118318750e+05
    7.0698894560e-03    1.0118327344e+05
    7.0798681118e-03    1.0118334375e+05
    7.0898551494e-03    1.0118335156e+05
    7.0998449810e-03    1.0118335156e+05
    7.1098329499e-03    1.0118342969e+05
    7.1198199876e-03    1.0118347656e+05
    7.1298098192e-03    1.0118332031e+05
    7.1398103610e-03    1.0118352344e+05
    7.1498113684e-03    1.0118346875e+05
    7.1598095819e-03    1.0118353906e+05
    7.1698068641e-03    1.0118365625e+05
    7.1798046120e-03    1.0118377344e+05
    7.1898093447e-03    1.0118378906e+05
    7.1998201311e-03    1.0118391406e+05
    7.2098295204e-03    1.0118387500e+05
    7.2198370472e-03    1.0118385156e+05
    7.2298445739e-03    1.0118137500e+05
    7.2398539633e-03    1.0118053906e+05
    7.2498675436e-03    1.0118036719e+05
    7.2598811239e-03    1.0118031250e+05
    7.2698937729e-03    1.0118035156e+05
    7.2799068876e-03    1.0118035156e+05
    7.2899269871e-03    1.0118056250e+05
    7.2999475524e-03    1.0118058594e+05
    7.3099662550e-03    1.0118069531e+05
    7.3199840263e-03    1.0118066406e+05
    7.3300017975e-03    1.0118059375e+05
    7.3400232941e-03    1.0118074219e+05
    7.3497802950e-03    1.0118085156e+05
    7.3597994633e-03    1.0118096094e+05
    7.3698177002e-03    1.0118089844e+05
    7.3798364028e-03    1.0118099219e+05
    7.3898667470e-03    1.0118096094e+05
    7.3999091983e-03    1.0118108594e+05
    7.4099511839e-03    1.0118096094e+05
    7.4199917726e-03    1.0118099219e+05
    7.4300323613e-03    1.0118086719e+05
    7.4398084544e-03    1.0118094531e+05
    7.4498495087e-03    1.0118109375e+05
    7.4598891661e-03    1.0118122656e+05
    7.4699274264e-03    1.0118117969e+05
    7.4799647555e-03    1.0118138281e+05
    7.4900048785e-03    1.0118137500e+05
    7.4997884221e-03    1.0118147656e+05
    7.5098392554e-03    1.0118186719e+05
    7.5198882259e-03    1.0118191406e+05
    7.5299362652e-03    1.0118203125e+05
    7.5399843045e-03    1.0118227344e+05
    7.5500388630e-03    1.0118246094e+05
    7.5598363765e-03    1.0118257031e+05
    7.5698983856e-03    1.0118277344e+05
    7.5799599290e-03    1.0118275781e+05
    7.5900210068e-03    1.0118283594e+05
    7.5998180546e-03    1.0118291406e+05
    7.6098786667e-03    1.0118307031e+05
    7.6199374162e-03    1.0118330469e+05
    7.6299943030e-03    1.0118333594e+05
    7.6397862285e-03    1.0118341406e+05
    7.6498440467e-03    1.0118349219e+05
    7.6599111781e-03    1.0118358594e+05
    7.6699862257e-03    1.0118355469e+05
    7.6797963120e-03    1.0118366406e+05
    7.6898708940e-03    1.0118359375e+05
    7.6999459416e-03    1.0118366406e+05
    7.7100228518e-03    1.0118371875e+05
    7.7198334038e-03    1.0118393750e+05
    7.7299075201e-03    1.0118396094e+05
    7.7399797738e-03    1.0118403125e+05
    7.7497870661e-03    1.0118421094e+05
    7.7598625794e-03    1.0118432031e+05
    7.7699464746e-03    1.0118437500e+05
    7.7800313011e-03    1.0118434375e+05
    7.7898497693e-03    1.0118435156e+05
    7.7999327332e-03    1.0118438281e+05
    7.8100156970e-03    1.0118438281e+05
    7.8198341653e-03    1.0118437500e+05
    7.8299194574e-03    1.0118440625e+05
    7.8400038183e-03    1.0118443750e+05
    7.8498236835e-03    1.0118441406e+05
    7.8599099070e-03    1.0118453125e+05
    7.8699970618e-03    1.0118453906e+05
    7.8798169270e-03    1.0118460156e+05
    7.8899012879e-03    1.0118453906e+05
    7.8999847174e-03    1.0118453906e+05
    7.9098027200e-03    1.0118441406e+05
    7.9198889434e-03    1.0118435156e+05
    7.9299779609e-03    1.0118438281e+05
    7.9398006201e-03    1.0118432031e+05
    7.9498887062e-03    1.0118437500e+05
    7.9599767923e-03    1.0118446094e+05
    7.9698003829e-03    1.0118446875e+05
    7.9798921943e-03    1.0118443750e+05
    7.9899840057e-03    1.0118389844e+05
    7.9998085275e-03    1.0118097656e+05
    8.0098984763e-03    1.0118087500e+05
    8.0199874938e-03    1.0118097656e+05
    8.0298129469e-03    1.0118102344e+05
    8.0399038270e-03    1.0118113281e+05
    8.0499947071e-03    1.0118118750e+05
    8.0598192289e-03    1.0118110156e+05
    8.0699091777e-03    1.0118103906e+05
    8.0800009891e-03    1.0118103906e+05
    8.0898264423e-03    1.0118121094e+05
    8.0999163911e-03    1.0118131250e+05
    8.1100044772e-03    1.0118121875e+05
    8.1198262051e-03    1.0118103906e+05
    8.1299133599e-03    1.0118114844e+05
    8.1400079653e-03    1.0118121094e+05
    8.1498436630e-03    1.0118122656e+05
    8.1599457189e-03    1.0118108594e+05
    8.1697823480e-03    1.0118103906e+05
    8.1798844039e-03    1.0118109375e+05
    8.1899873912e-03    1.0118121094e+05
    8.1998230889e-03    1.0118117969e+05
    8.2099232823e-03    1.0118071094e+05
    8.2200216129e-03    1.0117828906e+05
    8.2298526540e-03    1.0117844531e+05
    8.2399491221e-03    1.0117864844e+05
    8.2497876137e-03    1.0117878906e+05
    8.2599017769e-03    1.0117900781e+05
    8.2700168714e-03    1.0117915625e+05
    8.2798646763e-03    1.0117928125e+05
    8.2899779081e-03    1.0117947656e+05
    8.2998266444e-03    1.0117967969e+05
    8.3099417388e-03    1.0117989844e+05
    8.3197886124e-03    1.0117996094e+05
    8.3298999816e-03    1.0118018750e+05
    8.3400104195e-03    1.0118022656e+05
    8.3498544991e-03    1.0118022656e+05
    8.3599677309e-03    1.0118046875e+05
    8.3698211238e-03    1.0118066406e+05
    8.3799399436e-03    1.0118089844e+05
    8.3897905424e-03    1.0118109375e+05
    8.3999074996e-03    1.0118116406e+05
    8.4097571671e-03    1.0118127344e+05
    8.4198778495e-03    1.0117883594e+05
    8.4300022572e-03    1.0117802344e+05
    8.4398612380e-03    1.0117785156e+05
    8.4499865770e-03    1.0117818750e+05
    8.4598455578e-03    1.0117839844e+05
    8.4699708968e-03    1.0117853906e+05
    8.4798289463e-03    1.0117857031e+05
    8.4899514914e-03    1.0117871875e+05
    8.4998058155e-03    1.0117866406e+05
    8.5099255666e-03    1.0117882031e+05
    8.5197789595e-03    1.0117897656e+05
    8.5299005732e-03    1.0117909375e+05
    8.5397586226e-03    1.0117915625e+05
    8.5498811677e-03    1.0117927344e+05
    8.5600037128e-03    1.0117942969e+05
    8.5698598996e-03    1.0117925781e+05
    8.5799815133e-03    1.0117914844e+05
    8.5898377001e-03    1.0117928906e+05
    8.5999593139e-03    1.0117921875e+05
    8.6098127067e-03    1.0117916406e+05
    8.6199305952e-03    1.0117917969e+05
    8.6297830567e-03    1.0117914844e+05
    8.6399018764e-03    1.0117910156e+05
    8.6497571319e-03    1.0117934375e+05
    8.6598796770e-03    1.0117933594e+05
    8.6700022221e-03    1.0117958594e+05
    8.6798574775e-03    1.0117967969e+05
    8.6899781600e-03    1.0117975781e+05
    8.6998334154e-03    1.0117986719e+05
    8.7099531665e-03    1.0117993750e+05
    8.7198056281e-03    1.0117891406e+05
    8.7299225852e-03    1.0117646094e+05
    8.7397713214e-03    1.0117633594e+05
    8.7498864159e-03    1.0117646094e+05
    8.7600024417e-03    1.0117658594e+05
    8.7698595598e-03    1.0117677344e+05
    8.7799932808e-03    1.0117691406e+05
    8.7898606434e-03    1.0117697656e+05
    8.7999943644e-03    1.0117675781e+05
    8.8098598644e-03    1.0117460156e+05
    8.8199907914e-03    1.0117393750e+05
    8.8298553601e-03    1.0117411719e+05
    8.8399853557e-03    1.0117414844e+05
    8.8498471305e-03    1.0117422656e+05
    8.8599743322e-03    1.0117159375e+05
    8.8698342443e-03    1.0117089844e+05
    8.8799605146e-03    1.0117144531e+05
    8.8898222893e-03    1.0117168750e+05
    8.8999569416e-03    1.0117035156e+05
    8.9098270983e-03    1.0117063281e+05
    8.9199636132e-03    1.0117091406e+05
    8.9298328385e-03    1.0117100000e+05
    8.9399674907e-03    1.0117113281e+05
    8.9498357847e-03    1.0117130469e+05
    8.9599685743e-03    1.0117144531e+05
    8.9698340744e-03    1.0117135156e+05
    8.9799640700e-03    1.0117157031e+05
    8.9898267761e-03    1.0117159375e+05
    8.9999549091e-03    1.0117158594e+05
    9.0098166838e-03    1.0117152344e+05
    9.0199559927e-03    1.0117155469e+05
    9.0298429132e-03    1.0117157031e+05
    9.0397279710e-03    1.0117158594e+05
    9.0498784557e-03    1.0117171094e+05
    9.0597616509e-03    1.0117182031e+05
    9.0699112043e-03    1.0117205469e+05
    9.0797916055e-03    1.0117214844e+05
    9.0899448842e-03    1.0117235156e+05
    9.0998448431e-03    1.0117241406e+05
    9.1097475961e-03    1.0117252344e+05
    9.1199167073e-03    1.0117285156e+05
    9.1298166662e-03    1.0117241406e+05
    9.1399848461e-03    1.0117035156e+05
    9.1498838738e-03    1.0117062500e+05
    9.1597819701e-03    1.0117071875e+05
    9.1699464247e-03    1.0117088281e+05
    9.1798426583e-03    1.0117103906e+05
    9.1897379607e-03    1.0117135156e+05
    9.1999005526e-03    1.0117135156e+05
    9.2097949237e-03    1.0117082031e+05
    9.2199575156e-03    1.0117107031e+05
    9.2298500240e-03    1.0117127344e+05
    9.2397416010e-03    1.0117156250e+05
    9.2499004677e-03    1.0117191406e+05
    9.2597929761e-03    1.0117213281e+05
    9.2699527740e-03    1.0117241406e+05
    9.2798555270e-03    1.0117252344e+05
    9.2897666618e-03    1.0117262500e+05
    9.2999450862e-03    1.0117261719e+05
    9.3098543584e-03    1.0117275781e+05
    9.3197626993e-03    1.0117285156e+05
    9.3299401924e-03    1.0117302344e+05
    9.3398503959e-03    1.0117314844e+05
    9.3497615308e-03    1.0117314844e+05
    9.3599408865e-03    1.0117328125e+05
    9.3698529527e-03    1.0117343750e+05
    9.3797640875e-03    1.0117363281e+05
    9.3899425119e-03    1.0117380469e+05
    9.3998564407e-03    1.0117402344e+05
    9.4097703695e-03    1.0117403125e+05
    9.4199515879e-03    1.0117412500e+05
    9.4298673794e-03    1.0117425000e+05
    9.4398409128e-03    1.0117425781e+05
    9.4498759136e-03    1.0117442969e+05
    9.4597106799e-03    1.0117427344e+05
    9.4698537141e-03    1.0117146094e+05
    9.4797275960e-03    1.0117102344e+05
    9.4898929819e-03    1.0117127344e+05
    9.4998106360e-03    1.0117121875e+05
    9.5097301528e-03    1.0117113281e+05
    9.5199355856e-03    1.0117099219e+05
    9.5299351960e-03    1.0117096094e+05
    9.5399571583e-03    1.0117113281e+05
    9.5497369766e-03    1.0117118750e+05
    9.5597924665e-03    1.0117127344e+05
    9.5698768273e-03    1.0117147656e+05
    9.5796957612e-03    1.0117164844e+05
    9.5898220316e-03    1.0117169531e+05
    9.5998514444e-03    1.0117188281e+05
    9.6099553630e-03    1.0117207031e+05
    9.6197985113e-03    1.0117202344e+05
    9.6299480647e-03    1.0117072656e+05
    9.6398126334e-03    1.0116603125e+05
    9.6497107297e-03    1.0116617969e+05
    9.6598910168e-03    1.0116664844e+05
    9.6697807312e-03    1.0116685156e+05
    9.6799600869e-03    1.0116727344e+05
    9.6898702905e-03    1.0116757031e+05
    9.6997842193e-03    1.0116785156e+05
    9.7097568214e-03    1.0116802344e+05
    9.7198113799e-03    1.0116813281e+05
    9.7298854962e-03    1.0116824219e+05
    9.7396755591e-03    1.0116842969e+05
    9.7499042749e-03    1.0116858594e+05
    9.7598861903e-03    1.0116890625e+05
    9.7698858008e-03    1.0116907031e+05
    9.7799031064e-03    1.0116935156e+05
    9.7899148241e-03    1.0116947656e+05
    9.7999451682e-03    1.0116968750e+05
    9.8096681759e-03    1.0116991406e+05
    9.8196910694e-03    1.0117028906e+05
    9.8297689110e-03    1.0117058594e+05
    9.8398821428e-03    1.0117085156e+05
    9.8496880382e-03    1.0117102344e+05
    9.8598413169e-03    1.0117124219e+05
    9.8696900532e-03    1.0117125000e+05
    9.8798451945e-03    1.0116878906e+05
    9.8896939307e-03    1.0116821875e+05
    9.8998453468e-03    1.0116831250e+05
    9.9097816274e-03    1.0116853125e+05
    9.9198948592e-03    1.0116864844e+05
    9.9297640845e-03    1.0116869531e+05
    9.9397599697e-03    1.0116883594e+05
    9.9496673793e-03    1.0116897656e+05
    9.9598588422e-03    1.0116903125e+05
    9.9696191028e-03    1.0116908594e+05
    9.9799381569e-03    1.0116916406e+05
    9.9897040054e-03    1.0116941406e+05
    9.9996114150e-03    1.0116937500e+05
    1.0009663180e-02    1.0116941406e+05
    1.0019875132e-02    1.0116792969e+05
    1.0029868223e-02    1.0116638281e+05
    1.0039623827e-02    1.0116667969e+05
    1.0049918666e-02    1.0116685156e+05
    1.0059552267e-02    1.0116699219e+05
    1.0069717653e-02    1.0116702344e+05
    1.0079599917e-02    1.0116724219e+05
    1.0089599527e-02    1.0116752344e+05
    1.0099708103e-02    1.0116758594e+05
    1.0109927505e-02    1.0116767969e+05
    1.0119832121e-02    1.0116765625e+05
    1.0129846632e-02    1.0116790625e+05
    1.0139528662e-02    1.0116771875e+05
    1.0149754584e-02    1.0116746875e+05
    1.0159632191e-02    1.0116753906e+05
    1.0169598274e-02    1.0116785156e+05
    1.0179632343e-02    1.0116800781e+05
    1.0189710185e-02    1.0116812500e+05
    1.0199812241e-02    1.0116825000e+05
    1.0209501721e-02    1.0116839844e+05
    1.0219700634e-02    1.0116846094e+05
    1.0229936801e-02    1.0116869531e+05
    1.0239752010e-02    1.0116885156e+05
    1.0249616578e-02    1.0116900000e+05
    1.0259539820e-02    1.0116909375e+05
    1.0269497521e-02    1.0116932031e+05
    1.0279503651e-02    1.0116944531e+05
    1.0289550759e-02    1.0116956250e+05
    1.0299644433e-02    1.0116969531e+05
    1.0309831239e-02    1.0116980469e+05
    1.0319490917e-02    1.0116997656e+05
    1.0329769924e-02    1.0116989844e+05
    1.0339517146e-02    1.0116994531e+05
    1.0349893011e-02    1.0117005469e+05
    1.0359713808e-02    1.0117015625e+05
    1.0369672440e-02    1.0117035156e+05
    1.0379598476e-02    1.0117056250e+05
    1.0389578529e-02    1.0117071875e+05
    1.0399638675e-02    1.0117082031e+05
    1.0409713723e-02    1.0117103125e+05
    1.0419826023e-02    1.0117114844e+05
    1.0429448448e-02    1.0117127344e+05
    1.0439598002e-02    1.0117138281e+05
    1.0449793190e-02    1.0117146094e+05
    1.0459565558e-02    1.0117160156e+05
    1.0469897650e-02    1.0117175000e+05
    1.0479677469e-02    1.0117185156e+05
    1.0489543900e-02    1.0117186719e+05
    1.0499424301e-02    1.0117186719e+05
    1.0509899817e-02    1.0117194531e+05
    1.0519861244e-02    1.0117188281e+05
    1.0529811494e-02    1.0117021094e+05
    1.0539748706e-02    1.0116816406e+05
    1.0549765080e-02    1.0116608594e+05
    1.0559812188e-02    1.0116515625e+05
    1.0569874197e-02    1.0116517969e+05
    1.0579445399e-02    1.0116510156e+05
    1.0589604266e-02    1.0116531250e+05
    1.0599760339e-02    1.0116538281e+05
    1.0609417222e-02    1.0116553906e+05
    1.0619620793e-02    1.0116569531e+05
    1.0629891418e-02    1.0116575781e+05
    1.0639600456e-02    1.0116589844e+05
    1.0649902746e-02    1.0116619531e+05
    1.0659638792e-02    1.0116628906e+05
    1.0669377632e-02    1.0116635156e+05
    1.0679664090e-02    1.0116483594e+05
    1.0689876974e-02    1.0116428906e+05
    1.0699907318e-02    1.0116437500e+05
    1.0709670372e-02    1.0116447656e+05
    1.0719577782e-02    1.0116471875e+05
    1.0729570873e-02    1.0116491406e+05
    1.0739614256e-02    1.0116513281e+05
    1.0749663226e-02    1.0116530469e+05
    1.0759676807e-02    1.0116528906e+05
    1.0769613087e-02    1.0116389844e+05
    1.0779793374e-02    1.0116374219e+05
    1.0789765045e-02    1.0116389844e+05
    1.0799803771e-02    1.0116412500e+05
    1.0809795000e-02    1.0116412500e+05
    1.0819878429e-02    1.0116417969e+05
    1.0829837993e-02    1.0116416406e+05
    1.0839861818e-02    1.0116428125e+05
    1.0849860497e-02    1.0116453906e+05
    1.0859872214e-02    1.0116478125e+05
    1.0869849473e-02    1.0116464844e+05
    1.0879830457e-02    1.0116262500e+05
    1.0889773257e-02    1.0116241406e+05
    1.0899849236e-02    1.0116237500e+05
    1.0909875855e-02    1.0116216406e+05
    1.0919865221e-02    1.0116214844e+05
    1.0929746553e-02    1.0116232031e+05
    1.0939754546e-02    1.0116278906e+05
    1.0949848220e-02    1.0116285156e+05
    1.0959827341e-02    1.0116264844e+05
    1.0969798081e-02    1.0116127344e+05
    1.0979788378e-02    1.0116134375e+05
    1.0989814065e-02    1.0116139844e+05
    1.0999812745e-02    1.0116127344e+05
    1.1009785347e-02    1.0116125000e+05
    1.1019896716e-02    1.0115906250e+05
    1.1029690504e-02    1.0115933594e+05
    1.1039810255e-02    1.0115921094e+05
    1.1049776338e-02    1.0115909375e+05
    1.1059829965e-02    1.0115896094e+05
    1.1069700122e-02    1.0115921875e+05
    1.1079863645e-02    1.0115922656e+05
    1.1089838110e-02    1.0115946875e+05
    1.1099856347e-02    1.0115975781e+05
    1.1109906249e-02    1.0115997656e+05
    1.1119754985e-02    1.0116014844e+05
    1.1129889637e-02    1.0116030469e+05
    1.1139790528e-02    1.0116050781e+05
    1.1149743572e-02    1.0116072656e+05
    1.1159709655e-02    1.0116105469e+05
    1.1169709265e-02    1.0116128906e+05
    1.1179737747e-02    1.0116153906e+05
    1.1189779267e-02    1.0116172656e+05
    1.1199870147e-02    1.0116200781e+05
    1.1209697463e-02    1.0116203125e+05
    1.1219820939e-02    1.0116231250e+05
    1.1229692027e-02    1.0116241406e+05
    1.1239822954e-02    1.0116247656e+05
    1.1249744333e-02    1.0116257031e+05
    1.1259665713e-02    1.0116266406e+05
    1.1269869283e-02    1.0116271094e+05
    1.1279819533e-02    1.0116284375e+05
    1.1289818212e-02    1.0116294531e+05
    1.1299833655e-02    1.0116307031e+05
    1.1309842579e-02    1.0116285156e+05
    1.1319887824e-02    1.0116142969e+05
    1.1329699308e-02    1.0116164844e+05
    1.1339769699e-02    1.0116171094e+05
    1.1349845678e-02    1.0116186719e+05
    1.1359699070e-02    1.0116185156e+05
    1.1369816959e-02    1.0116178906e+05
    1.1379685253e-02    1.0116189844e+05
    1.1389832012e-02    1.0116164844e+05
    1.1399754323e-02    1.0116160156e+05
    1.1409671977e-02    1.0116158594e+05
    1.1419859715e-02    1.0116171094e+05
    1.1429818347e-02    1.0116178906e+05
    1.1439785361e-02    1.0116181250e+05
    1.1449745856e-02    1.0116191406e+05
    1.1459734291e-02    1.0116210156e+05
    1.1469749734e-02    1.0116081250e+05
    1.1479755864e-02    1.0116050781e+05
    1.1489767581e-02    1.0116082031e+05
    1.1499803513e-02    1.0116124219e+05
    1.1509847827e-02    1.0116146094e+05
    1.1519876309e-02    1.0116141406e+05
    1.1529672891e-02    1.0116039844e+05
    1.1539758183e-02    1.0115978125e+05
    1.1549835093e-02    1.0115989844e+05
    1.1559660546e-02    1.0115974219e+05
    1.1569766328e-02    1.0115943750e+05
    1.1579887010e-02    1.0115937500e+05
    1.1589733884e-02    1.0115937500e+05
    1.1599852704e-02    1.0115963281e+05
    1.1609739624e-02    1.0115971094e+05
    1.1619884521e-02    1.0115964844e+05
    1.1629772373e-02    1.0115974219e+05
    1.1639676988e-02    1.0115969531e+05
    1.1649857275e-02    1.0115963281e+05
    1.1659770273e-02    1.0115986719e+05
    1.1669682339e-02    1.0115994531e+05
    1.1679875664e-02    1.0115985156e+05
    1.1689813808e-02    1.0116002344e+05
    1.1699751951e-02    1.0116027344e+05
    1.1709700339e-02    1.0116011719e+05
    1.1719663627e-02    1.0116028125e+05
    1.1729628779e-02    1.0116053906e+05
    1.1739854701e-02    1.0116061719e+05
    1.1749835685e-02    1.0116065625e+05
    1.1759828776e-02    1.0116084375e+05
    1.1769821867e-02    1.0116116406e+05
    1.1779829860e-02    1.0116152344e+05
    1.1789849028e-02    1.0116150781e+05
    1.1799873784e-02    1.0116163281e+05
    1.1809631251e-02    1.0116183594e+05
    1.1819652282e-02    1.0116192969e+05
    1.1829683557e-02    1.0116196094e+05
    1.1839716695e-02    1.0116206250e+05
    1.1849748902e-02    1.0116218750e+05
    1.1859790422e-02    1.0116227344e+05
    1.1869841255e-02    1.0116259375e+05
    1.1879635043e-02    1.0116271094e+05
    1.1889703572e-02    1.0116272656e+05
    1.1899780482e-02    1.0116297656e+05
    1.1909860186e-02    1.0116321094e+05
    1.1919670738e-02    1.0116321094e+05
    1.1929747649e-02    1.0116305469e+05
    1.1939833872e-02    1.0116300781e+05
    1.1949659325e-02    1.0116296094e+05
    1.1959755793e-02    1.0116303125e+05
    1.1969855055e-02    1.0116299219e+05
    1.1979690753e-02    1.0116103906e+05
    1.1989791878e-02    1.0116111719e+05
    1.1999626644e-02    1.0116137500e+05
    1.2009724975e-02    1.0116122656e+05
    1.2019823305e-02    1.0116139844e+05
    1.2029655278e-02    1.0116146094e+05
    1.2039752677e-02    1.0116153906e+05
    1.2049850076e-02    1.0116152344e+05
    1.2059682049e-02    1.0116113281e+05
    1.2069779448e-02    1.0116103906e+05
    1.2079614215e-02    1.0116111719e+05
    1.2089716271e-02    1.0116115625e+05
    1.2099821121e-02    1.0116124219e+05
    1.2109661475e-02    1.0116125000e+05
    1.2119767256e-02    1.0116140625e+05
    1.2129607610e-02    1.0116152344e+05
    1.2139714323e-02    1.0116161719e+05
    1.2149820104e-02    1.0116171094e+05
    1.2159659527e-02    1.0116184375e+05
    1.2169766240e-02    1.0116196875e+05
    1.2179607525e-02    1.0116103125e+05
    1.2189716101e-02    1.0115991406e+05
    1.2199826539e-02    1.0115993750e+05
    1.2209671549e-02    1.0116000781e+05
    1.2219781987e-02    1.0116027344e+05
    1.2229626998e-02    1.0116038281e+05
    1.2239736505e-02    1.0116062500e+05
    1.2249846011e-02    1.0116077344e+05
    1.2259690091e-02    1.0116086719e+05
    1.2269799598e-02    1.0116090625e+05
    1.2279645540e-02    1.0116096094e+05
    1.2289760634e-02    1.0116108594e+05
    1.2299612164e-02    1.0116111719e+05
    1.2309730053e-02    1.0116097656e+05
    1.2319847941e-02    1.0115940625e+05
    1.2329700403e-02    1.0115939844e+05
    1.2339818291e-02    1.0115937500e+05
    1.2349671684e-02    1.0115943750e+05
    1.2359790504e-02    1.0115955469e+05
    1.2369642034e-02    1.0115952344e+05
    1.2379760854e-02    1.0115953906e+05
    1.2389612384e-02    1.0115961719e+05
    1.2399731204e-02    1.0115965625e+05
    1.2409850024e-02    1.0115975781e+05
    1.2419705279e-02    1.0115974219e+05
    1.2429828756e-02    1.0115981250e+05
    1.2439687736e-02    1.0115991406e+05
    1.2449815869e-02    1.0116010156e+05
    1.2459683232e-02    1.0116008594e+05
    1.2469822541e-02    1.0116007031e+05
    1.2479696423e-02    1.0116008594e+05
    1.2489835732e-02    1.0116006250e+05
    1.2499705888e-02    1.0116011719e+05
    1.2509842403e-02    1.0116021094e+05
    1.2519711629e-02    1.0116017969e+05
    1.2529846281e-02    1.0116027344e+05
    1.2539717369e-02    1.0116041406e+05
    1.2549594976e-02    1.0116035156e+05
    1.2559744529e-02    1.0116031250e+05
    1.2569628656e-02    1.0116030469e+05
    1.2579778209e-02    1.0116022656e+05
    1.2589660473e-02    1.0115989844e+05
    1.2599810027e-02    1.0115747656e+05
    1.2609691359e-02    1.0115753906e+05
    1.2619840913e-02    1.0115756250e+05
    1.2629725039e-02    1.0115772656e+05
    1.2639609165e-02    1.0115764844e+05
    1.2649760582e-02    1.0115775781e+05
    1.2659645639e-02    1.0115790625e+05
    1.2669797987e-02    1.0115811719e+05
    1.2679683976e-02    1.0115822656e+05
    1.2689835392e-02    1.0115842969e+05
    1.2699719518e-02    1.0115856250e+05
    1.2709602714e-02    1.0115874219e+05
    1.2719752267e-02    1.0115878125e+05
    1.2729634531e-02    1.0115872656e+05
    1.2739790604e-02    1.0115875781e+05
    1.2749684043e-02    1.0115878906e+05
    1.2759843841e-02    1.0115877344e+05
    1.2769736350e-02    1.0115877344e+05
    1.2779626995e-02    1.0115844531e+05
    1.2789784931e-02    1.0115697656e+05
    1.2799679302e-02    1.0115678125e+05
    1.2809846550e-02    1.0115683594e+05
    1.2819749303e-02    1.0115699219e+05
    1.2829650193e-02    1.0115589844e+05
    1.2839817442e-02    1.0115550000e+05
    1.2849717401e-02    1.0115553906e+05
    1.2859615497e-02    1.0115560156e+05
    1.2869781815e-02    1.0115564844e+05
    1.2879682705e-02    1.0115567969e+05
    1.2889591046e-02    1.0115566406e+05
    1.2899767607e-02    1.0115578125e+05
    1.2909675017e-02    1.0115569531e+05
    1.2919582427e-02    1.0115578125e+05
    1.2929756194e-02    1.0115597656e+05
    1.2939663604e-02    1.0115605469e+05
    1.2949576601e-02    1.0115616406e+05
    1.2959763408e-02    1.0115637500e+05
    1.2969686650e-02    1.0115637500e+05
    1.2979609892e-02    1.0115636719e+05
    1.2989800423e-02    1.0115646094e+05
    1.2999719940e-02    1.0115666406e+05
    1.3009638526e-02    1.0115657031e+05
    1.3019822538e-02    1.0115655469e+05
    1.3029741123e-02    1.0115655469e+05
    1.3039670885e-02    1.0115602344e+05
    1.3049608096e-02    1.0115600781e+05
    1.3059810735e-02    1.0115608594e+05
    1.3069742359e-02    1.0115647656e+05
    1.3079670258e-02    1.0115653906e+05
    1.3089603744e-02    1.0115653125e+05
    1.3099819422e-02    1.0115647656e+05
    1.3109778985e-02    1.0115644531e+05
    1.3119738549e-02    1.0115666406e+05
    1.3129696250e-02    1.0115672656e+05
    1.3139655814e-02    1.0115677344e+05
    1.3149623759e-02    1.0115678125e+05
    1.3159593567e-02    1.0115678906e+05
    1.3169828802e-02    1.0115686719e+05
    1.3179793023e-02    1.0115702344e+05
    1.3189755380e-02    1.0115713281e+05
    1.3199714944e-02    1.0115731250e+05
    1.3209686615e-02    1.0115755469e+05
    1.3219674118e-02    1.0115768750e+05
    1.3229670003e-02    1.0115771094e+05
    1.3239664026e-02    1.0115771094e+05
    1.3249654323e-02    1.0115761719e+05
    1.3259643689e-02    1.0115622656e+05
    1.3269632123e-02    1.0115566406e+05
    1.3279630803e-02    1.0115583594e+05
    1.3289641589e-02    1.0115591406e+05
    1.3299657963e-02    1.0115639844e+05
    1.3309674338e-02    1.0115661719e+05
    1.3319689780e-02    1.0115666406e+05
    1.3329708949e-02    1.0115700000e+05
    1.3339729048e-02    1.0115717969e+05
    1.3349748217e-02    1.0115728906e+05
    1.3359765522e-02    1.0115760156e+05
    1.3369782828e-02    1.0115775000e+05
    1.3379797339e-02    1.0115800781e+05
    1.3389811851e-02    1.0115797656e+05
    1.3399822637e-02    1.0115807031e+05
    1.3409567066e-02    1.0115834375e+05
    1.3419602066e-02    1.0115840625e+05
    1.3429655693e-02    1.0115856250e+05
    1.3439708389e-02    1.0115862500e+05
    1.3449759223e-02    1.0115872656e+05
    1.3459808193e-02    1.0115871875e+05
    1.3469585218e-02    1.0115875000e+05
    1.3479642570e-02    1.0115885156e+05
    1.3489705510e-02    1.0115900781e+05
    1.3499767520e-02    1.0115908594e+05
    1.3509555720e-02    1.0115921094e+05
    1.3519619592e-02    1.0115941406e+05
    1.3529689983e-02    1.0115932031e+05
    1.3539763168e-02    1.0115939844e+05
    1.3549564406e-02    1.0115953906e+05
    1.3559641317e-02    1.0115953906e+05
    1.3569726609e-02    1.0115971094e+05
    1.3579811901e-02    1.0115975000e+05
    1.3589622453e-02    1.0115987500e+05
    1.3599704020e-02    1.0115985156e+05
    1.3609782793e-02    1.0116000000e+05
    1.3619600795e-02    1.0116019531e+05
    1.3629699126e-02    1.0116014844e+05
    1.3639796525e-02    1.0116032031e+05
    1.3649619184e-02    1.0116028125e+05
    1.3659714721e-02    1.0116022656e+05
    1.3669541106e-02    1.0116028906e+05
    1.3679642230e-02    1.0116022656e+05
    1.3689742424e-02    1.0116016406e+05
    1.3699566945e-02    1.0116021094e+05
    1.3709666207e-02    1.0115887500e+05
    1.3719778508e-02    1.0115753125e+05
    1.3729627244e-02    1.0115756250e+05
    1.3739747927e-02    1.0115771875e+05
    1.3749594800e-02    1.0115789844e+05
    1.3759713620e-02    1.0115778906e+05
    1.3769567944e-02    1.0115785156e+05
    1.3779703528e-02    1.0115800781e+05
    1.3789564371e-02    1.0115815625e+05
    1.3799699955e-02    1.0115825781e+05
    1.3809560798e-02    1.0115840625e+05
    1.3819695450e-02    1.0115850000e+05
    1.3829553500e-02    1.0115816406e+05
    1.3839683495e-02    1.0115800781e+05
    1.3849535026e-02    1.0115800781e+05
    1.3859677128e-02    1.0115805469e+05
    1.3869562186e-02    1.0115810156e+05
    1.3879726641e-02    1.0115822656e+05
    1.3889615424e-02    1.0115830469e+05
    1.3899778947e-02    1.0115839844e+05
    1.3909667730e-02    1.0115861719e+05
    1.3919555582e-02    1.0115877344e+05
    1.3929718174e-02    1.0115889844e+05
    1.3939605094e-02    1.0115900781e+05
    1.3949772343e-02    1.0115912500e+05
    1.3959670439e-02    1.0115903906e+05
    1.3969566673e-02    1.0115927344e+05
    1.3979736716e-02    1.0115936719e+05
    1.3989628293e-02    1.0115956250e+05
    1.3999798335e-02    1.0115974219e+05
    1.4009712264e-02    1.0115987500e+05
    1.4019640163e-02    1.0116014844e+05
    1.4029568061e-02    1.0116036719e+05
    1.4039770700e-02    1.0116091406e+05
    1.4049696736e-02    1.0116106250e+05
    1.4059621841e-02    1.0116146094e+05
    1.4069546945e-02    1.0116167969e+05
    1.4079747722e-02    1.0116172656e+05
    1.4089671895e-02    1.0116186719e+05
    1.4099597000e-02    1.0116217969e+05
    1.4109531417e-02    1.0116227344e+05
    1.4119754545e-02    1.0116227344e+05
    1.4129702933e-02    1.0116246094e+05
    1.4139648527e-02    1.0116043750e+05
    1.4149592258e-02    1.0116053906e+05
    1.4159534127e-02    1.0116086719e+05
    1.4169758186e-02    1.0116089844e+05
    1.4179715887e-02    1.0116122656e+05
    1.4189684764e-02    1.0116144531e+05
    1.4199668542e-02    1.0116160156e+05
    1.4209656976e-02    1.0116178906e+05
    1.4219642617e-02    1.0116177344e+05
    1.4229625463e-02    1.0116200781e+05
    1.4239604585e-02    1.0116203906e+05
    1.4249580912e-02    1.0116200781e+05
    1.4259579591e-02    1.0116161719e+05
    1.4269588515e-02    1.0115885156e+05
    1.4279599302e-02    1.0115902344e+05
    1.4289609157e-02    1.0115914844e+05
    1.4299620874e-02    1.0115940625e+05
    1.4309640042e-02    1.0115965625e+05
    1.4319659211e-02    1.0115959375e+05
    1.4329677448e-02    1.0115982031e+05
    1.4339694753e-02    1.0115841406e+05
    1.4349711128e-02    1.0115753906e+05
    1.4359734021e-02    1.0115806250e+05
    1.4369760640e-02    1.0115833594e+05
    1.4379507862e-02    1.0115850781e+05
    1.4389533550e-02    1.0115849219e+05
    1.4399559237e-02    1.0115869531e+05
    1.4409590513e-02    1.0115869531e+05
    1.4419628307e-02    1.0115890625e+05
    1.4429669827e-02    1.0115906250e+05
    1.4439711347e-02    1.0115933594e+05
    1.4449752867e-02    1.0115955469e+05
    1.4459514059e-02    1.0115966406e+05
    1.4469551854e-02    1.0116000000e+05
    1.4479588717e-02    1.0116005469e+05
    1.4489623718e-02    1.0116016406e+05
    1.4499662444e-02    1.0116046094e+05
    1.4509710483e-02    1.0116047656e+05
    1.4519764110e-02    1.0116075781e+05
    1.4529537410e-02    1.0116065625e+05
    1.4539590105e-02    1.0116096094e+05
    1.4549646527e-02    1.0116096094e+05
    1.4559707604e-02    1.0116110156e+05
    1.4569770545e-02    1.0116125781e+05
    1.4579555020e-02    1.0115962500e+05
    1.4589618891e-02    1.0115911719e+05
    1.4599682763e-02    1.0115925000e+05
    1.4609747566e-02    1.0115909375e+05
    1.4619531110e-02    1.0115896094e+05
    1.4629594982e-02    1.0115906250e+05
    1.4639657922e-02    1.0115922656e+05
    1.4649723656e-02    1.0115933594e+05
    1.4659509994e-02    1.0115928125e+05
    1.4669573866e-02    1.0115927344e+05
    1.4679635875e-02    1.0115906250e+05
    1.4689698815e-02    1.0115921875e+05
    1.4699496329e-02    1.0115931250e+05
    1.4709584415e-02    1.0115935156e+05
    1.4719672501e-02    1.0115928906e+05
    1.4729757793e-02    1.0115928906e+05
    1.4739560895e-02    1.0115925000e+05
    1.4749643393e-02    1.0115925781e+05
    1.4759737067e-02    1.0115917969e+05
    1.4769556932e-02    1.0115930469e+05
    1.4779662713e-02    1.0115797656e+05
    1.4789490029e-02    1.0115578125e+05
    1.4799596742e-02    1.0115584375e+05
    1.4809702523e-02    1.0115605469e+05
    1.4819527045e-02    1.0115628906e+05
    1.4829630964e-02    1.0115641406e+05
    1.4839742333e-02    1.0115653125e+05
    1.4849585481e-02    1.0115646094e+05
    1.4859715477e-02    1.0115646875e+05
    1.4869562350e-02    1.0115658594e+05
    1.4879687689e-02    1.0115655469e+05
    1.4889531769e-02    1.0115664844e+05
    1.4899654314e-02    1.0115660156e+05
    1.4909503050e-02    1.0115674219e+05
    1.4919638634e-02    1.0115684375e+05
    1.4929496683e-02    1.0115712500e+05
    1.4939637855e-02    1.0115719531e+05
    1.4949497767e-02    1.0115735156e+05
    1.4959640801e-02    1.0115764844e+05
    1.4969503507e-02    1.0115759375e+05
    1.4979650266e-02    1.0115772656e+05
    1.4989514835e-02    1.0115783594e+05
    1.4999661595e-02    1.0115811719e+05
    1.5009526163e-02    1.0115839844e+05
    1.5019671991e-02    1.0115856250e+05
    1.5029534698e-02    1.0115866406e+05
    1.5039683320e-02    1.0115889844e+05
    1.5049557202e-02    1.0115897656e+05
    1.5059712343e-02    1.0115916406e+05
    1.5069582500e-02    1.0115902344e+05
    1.5079732053e-02    1.0115808594e+05
    1.5089596622e-02    1.0115517969e+05
    1.5099747106e-02    1.0115490625e+05
    1.5109641477e-02    1.0115514844e+05
    1.5119545162e-02    1.0115511719e+05
    1.5129734762e-02    1.0115543750e+05
    1.5139639378e-02    1.0115553906e+05
    1.5149543993e-02    1.0115581250e+05
    1.5159731731e-02    1.0115614844e+05
    1.5169637278e-02    1.0115608594e+05
    1.5179542825e-02    1.0115606250e+05
    1.5189730562e-02    1.0115602344e+05
    1.5199636109e-02    1.0115616406e+05
    1.5209540725e-02    1.0115622656e+05
    1.5219729394e-02    1.0115625000e+05
    1.5229634009e-02    1.0115628906e+05
    1.5239537694e-02    1.0115628906e+05
    1.5249731950e-02    1.0115638281e+05
    1.5259649605e-02    1.0115641406e+05
    1.5269570053e-02    1.0115660156e+05
    1.5279489569e-02    1.0115661719e+05
    1.5289691277e-02    1.0115694531e+05
    1.5299608931e-02    1.0115716406e+05
    1.5309526585e-02    1.0115742969e+05
    1.5319731086e-02    1.0115768750e+05
    1.5329656191e-02    1.0115807031e+05
    1.5339584090e-02    1.0115810156e+05
    1.5349511988e-02    1.0115821875e+05
    1.5359723009e-02    1.0115827344e+05
    1.5369649045e-02    1.0115853125e+05
    1.5379574150e-02    1.0115868750e+05
    1.5389498323e-02    1.0115860156e+05
    1.5399706550e-02    1.0115859375e+05
    1.5409640037e-02    1.0115853906e+05
    1.5419580974e-02    1.0115860156e+05
    1.5429524705e-02    1.0115852344e+05
    1.5439469367e-02    1.0115844531e+05
    1.5449696220e-02    1.0115852344e+05
    1.5459639020e-02    1.0115840625e+05
    1.5469581820e-02    1.0115847656e+05
    1.5479522757e-02    1.0115844531e+05
    1.5489470214e-02    1.0115839844e+05
    1.5499711037e-02    1.0115861719e+05
    1.5509674326e-02    1.0115860156e+05
    1.5519636683e-02    1.0115856250e+05
    1.5529598109e-02    1.0115858594e+05
    1.5539557673e-02    1.0115849219e+05
    1.5549517237e-02    1.0115856250e+05
    1.5559475869e-02    1.0115846875e+05
    1.5569719486e-02    1.0115833594e+05
    1.5579678118e-02    1.0115835156e+05
    1.5589637682e-02    1.0115841406e+05
    1.5599600039e-02    1.0115839844e+05
    1.5609567054e-02    1.0115839844e+05
    1.5619540587e-02    1.0115827344e+05
    1.5629518777e-02    1.0115577344e+05
    1.5639498830e-02    1.0115537500e+05
    1.5649477020e-02    1.0115546094e+05
    1.5659455210e-02    1.0115546875e+05
    1.5669718385e-02    1.0115546094e+05
    1.5679696575e-02    1.0115542969e+05
    1.5689680353e-02    1.0115547656e+05
    1.5699667856e-02    1.0115546094e+05
    1.5709655359e-02    1.0115555469e+05
    1.5719642863e-02    1.0115562500e+05
    1.5729630366e-02    1.0115589844e+05
    1.5739616007e-02    1.0115592969e+05
    1.5749601647e-02    1.0115621875e+05
    1.5759585425e-02    1.0115627344e+05
    1.5769569203e-02    1.0115630469e+05
    1.5779558569e-02    1.0115647656e+05
    1.5789549798e-02    1.0115658594e+05
    1.5799542889e-02    1.0115675781e+05
    1.5809535980e-02    1.0115700000e+05
    1.5819532797e-02    1.0115697656e+05
    1.5829527751e-02    1.0115686719e+05
    1.5839520842e-02    1.0115494531e+05
    1.5849512070e-02    1.0115290625e+05
    1.5859503299e-02    1.0115293750e+05
    1.5869492665e-02    1.0115289844e+05
    1.5879493207e-02    1.0115291406e+05
    1.5889503062e-02    1.0115306250e+05
    1.5899514779e-02    1.0115316406e+05
    1.5909528360e-02    1.0115328906e+05
    1.5919540077e-02    1.0115353125e+05
    1.5929551795e-02    1.0115366406e+05
    1.5939561650e-02    1.0115380469e+05
    1.5949575230e-02    1.0115394531e+05
    1.5959596261e-02    1.0115396094e+05
    1.5969621018e-02    1.0115421875e+05
    1.5979647636e-02    1.0115428906e+05
    1.5989674255e-02    1.0115452344e+05
    1.5999697149e-02    1.0115462500e+05
    1.6009720042e-02    1.0115475000e+05
    1.6019739211e-02    1.0115472656e+05
    1.6029471532e-02    1.0115468750e+05
    1.6039498150e-02    1.0115471094e+05
    1.6049539670e-02    1.0115477344e+05
    1.6059590504e-02    1.0115464844e+05
    1.6069643199e-02    1.0115447656e+05
    1.6079695895e-02    1.0115427344e+05
    1.6089748591e-02    1.0115435156e+05
    1.6099510714e-02    1.0115471094e+05
    1.6109561548e-02    1.0115469531e+05
    1.6119610518e-02    1.0115478125e+05
    1.6129663214e-02    1.0115508594e+05
    1.6139719635e-02    1.0115507031e+05
    1.6149491072e-02    1.0115513281e+05
    1.6159549356e-02    1.0115322656e+05
    1.6169609502e-02    1.0115321875e+05
    1.6179669648e-02    1.0115321875e+05
    1.6189727932e-02    1.0115338281e+05
    1.6199497506e-02    1.0115341406e+05
    1.6209555790e-02    1.0115365625e+05
    1.6219614074e-02    1.0115378906e+05
    1.6229670495e-02    1.0115386719e+05
    1.6239728779e-02    1.0115384375e+05
    1.6249502078e-02    1.0115393750e+05
    1.6259565949e-02    1.0115419531e+05
    1.6269631684e-02    1.0115427344e+05
    1.6279699281e-02    1.0115441406e+05
    1.6289766878e-02    1.0115457031e+05
    1.6299545765e-02    1.0115471094e+05
    1.6309613362e-02    1.0115490625e+05
    1.6319680959e-02    1.0115503906e+05
    1.6329750419e-02    1.0115522656e+05
    1.6339529306e-02    1.0115527344e+05
    1.6349596903e-02    1.0115550000e+05
    1.6359662637e-02    1.0115557031e+05
    1.6369730234e-02    1.0115575000e+05
    1.6379507259e-02    1.0115583594e+05
    1.6389574856e-02    1.0115605469e+05
    1.6399638727e-02    1.0115600781e+05
    1.6409706324e-02    1.0115564844e+05
    1.6419490799e-02    1.0115589844e+05
    1.6429565847e-02    1.0115605469e+05
    1.6439640895e-02    1.0115625000e+05
    1.6449715942e-02    1.0115628906e+05
    1.6459502280e-02    1.0115627344e+05
    1.6469575465e-02    1.0115638281e+05
    1.6479646787e-02    1.0115640625e+05
    1.6489719972e-02    1.0115639844e+05
    1.6499504447e-02    1.0115641406e+05
    1.6509579495e-02    1.0115646094e+05
    1.6519654542e-02    1.0115644531e+05
    1.6529729590e-02    1.0115655469e+05
    1.6539515927e-02    1.0115644531e+05
    1.6549589112e-02    1.0115635156e+05
    1.6559662297e-02    1.0115628906e+05
    1.6569737345e-02    1.0115637500e+05
    1.6579529271e-02    1.0115625781e+05
    1.6589617357e-02    1.0115627344e+05
    1.6599707305e-02    1.0115593750e+05
    1.6609508544e-02    1.0115608594e+05
    1.6619598493e-02    1.0115600000e+05
    1.6629688442e-02    1.0115591406e+05
    1.6639776528e-02    1.0115584375e+05
    1.6649577767e-02    1.0115596094e+05
    1.6659667715e-02    1.0115596094e+05
    1.6669759527e-02    1.0115577344e+05
    1.6679560766e-02    1.0115582031e+05
    1.6689648852e-02    1.0115578125e+05
    1.6699736938e-02    1.0115580469e+05
    1.6709534451e-02    1.0115584375e+05
    1.6719618812e-02    1.0115583594e+05
    1.6729708761e-02    1.0115591406e+05
    1.6739517450e-02    1.0115589844e+05
    1.6749618575e-02    1.0115578125e+05
    1.6759719700e-02    1.0115582031e+05
    1.6769533977e-02    1.0115572656e+05
    1.6779633239e-02    1.0115571875e+05
    1.6789734364e-02    1.0115563281e+05
    1.6799544916e-02    1.0115561719e+05
    1.6809642315e-02    1.0115543750e+05
    1.6819739714e-02    1.0115535156e+05
    1.6829552129e-02    1.0115550000e+05
    1.6839656979e-02    1.0115552344e+05
    1.6849767417e-02    1.0115544531e+05
    1.6859589145e-02    1.0115550000e+05
    1.6869699582e-02    1.0115546094e+05
    1.6879519448e-02    1.0115546094e+05
    1.6889626160e-02    1.0115546094e+05
    1.6899732873e-02    1.0115539844e+05
    1.6909549013e-02    1.0115547656e+05
    1.6919652000e-02    1.0115544531e+05
    1.6929756850e-02    1.0115518750e+05
    1.6939582303e-02    1.0115252344e+05
    1.6949703917e-02    1.0115121094e+05
    1.6959540546e-02    1.0115128125e+05
    1.6969664022e-02    1.0115130469e+05
    1.6979787499e-02    1.0115137500e+05
    1.6989622265e-02    1.0115147656e+05
    1.6999747604e-02    1.0115177344e+05
    1.7009584233e-02    1.0115180469e+05
    1.7019713297e-02    1.0115153906e+05
    1.7029551789e-02    1.0115172656e+05
    1.7039677128e-02    1.0115149219e+05
    1.7049804330e-02    1.0115159375e+05
    1.7059639096e-02    1.0115146875e+05
    1.7069764435e-02    1.0115153906e+05
    1.7079601064e-02    1.0115157031e+05
    1.7089724541e-02    1.0115169531e+05
    1.7099559307e-02    1.0115188281e+05
    1.7109684646e-02    1.0115190625e+05
    1.7119808123e-02    1.0115203906e+05
    1.7129642889e-02    1.0115222656e+05
    1.7139770091e-02    1.0115238281e+05
    1.7149614170e-02    1.0115266406e+05
    1.7159748822e-02    1.0115269531e+05
    1.7169594765e-02    1.0115292969e+05
    1.7179729417e-02    1.0115136719e+05
    1.7189573497e-02    1.0114935156e+05
    1.7199708149e-02    1.0114721094e+05
    1.7209554091e-02    1.0114771875e+05
    1.7219694331e-02    1.0114792969e+05
    1.7229553312e-02    1.0114802344e+05
    1.7239706591e-02    1.0114816406e+05
    1.7249567434e-02    1.0114849219e+05
    1.7259715125e-02    1.0114862500e+05
    1.7269572243e-02    1.0114881250e+05
    1.7279719934e-02    1.0114899219e+05
    1.7289578915e-02    1.0114915625e+05
    1.7299739644e-02    1.0114925781e+05
    1.7309613526e-02    1.0114934375e+05
    1.7319774255e-02    1.0114950000e+05
    1.7329644412e-02    1.0114958594e+05
    1.7339803278e-02    1.0114971094e+05
    1.7349673435e-02    1.0114978125e+05
    1.7359543592e-02    1.0115000781e+05
    1.7369706184e-02    1.0115021094e+05
    1.7379580066e-02    1.0115028906e+05
    1.7389753833e-02    1.0115053906e+05
    1.7399650067e-02    1.0115087500e+05
    1.7409557477e-02    1.0115096875e+05
    1.7419755459e-02    1.0115127344e+05
    1.7429657280e-02    1.0115147656e+05
    1.7439559102e-02    1.0115166406e+05
    1.7449749634e-02    1.0115178906e+05
    1.7459647730e-02    1.0115193750e+05
    1.7469547689e-02    1.0115216406e+05
    1.7479740083e-02    1.0115253125e+05
    1.7489649355e-02    1.0115275000e+05
    1.7499567941e-02    1.0115277344e+05
    1.7509784549e-02    1.0115296875e+05
    1.7519710585e-02    1.0115309375e+05
    1.7529636621e-02    1.0115328906e+05
    1.7539562657e-02    1.0115325000e+05
    1.7549779266e-02    1.0115347656e+05
    1.7559703439e-02    1.0115353906e+05
    1.7569627613e-02    1.0115349219e+05
    1.7579551786e-02    1.0115146875e+05
    1.7589764670e-02    1.0115062500e+05
    1.7599685118e-02    1.0114792969e+05
    1.7609605566e-02    1.0114753906e+05
    1.7619818449e-02    1.0114796094e+05
    1.7629738897e-02    1.0114810156e+05
    1.7639663070e-02    1.0114835156e+05
    1.7649585381e-02    1.0114843750e+05
    1.7659800127e-02    1.0114787500e+05
    1.7669722438e-02    1.0114675781e+05
    1.7679648474e-02    1.0114693750e+05
    1.7689576373e-02    1.0114703906e+05
    1.7699800432e-02    1.0114710156e+05
    1.7709733918e-02    1.0114671094e+05
    1.7719671130e-02    1.0114568750e+05
    1.7729610205e-02    1.0114425781e+05
    1.7739841715e-02    1.0114455469e+05
    1.7749780789e-02    1.0114459375e+05
    1.7759718001e-02    1.0114489844e+05
    1.7769653350e-02    1.0114496875e+05
    1.7779588699e-02    1.0114531250e+05
    1.7789816484e-02    1.0114550781e+05
    1.7799749970e-02    1.0114572656e+05
    1.7809687182e-02    1.0114571875e+05
    1.7819628119e-02    1.0114550000e+05
    1.7829576507e-02    1.0114400000e+05
    1.7839817330e-02    1.0114437500e+05
    1.7849765718e-02    1.0114459375e+05
    1.7859714106e-02    1.0114481250e+05
    1.7869660631e-02    1.0114489844e+05
    1.7879607156e-02    1.0114503125e+05
    1.7889846116e-02    1.0114503906e+05
    1.7899792641e-02    1.0114308594e+05
    1.7909737304e-02    1.0114322656e+05
    1.7919681966e-02    1.0114216406e+05
    1.7929624766e-02    1.0114160156e+05
    1.7939854413e-02    1.0114097656e+05
    1.7949787900e-02    1.0114112500e+05
    1.7959713936e-02    1.0114105469e+05
    1.7969632521e-02    1.0114111719e+05
    1.7979837954e-02    1.0114125000e+05
    1.7989747226e-02    1.0114127344e+05
    1.7999649048e-02    1.0114131250e+05
    1.8009837717e-02    1.0114136719e+05
    1.8019732088e-02    1.0114146875e+05
    1.8029619008e-02    1.0114159375e+05
    1.8039794639e-02    1.0114163281e+05
    1.8049690872e-02    1.0114156250e+05
    1.8059717491e-02    1.0114127344e+05
    1.8069595098e-02    1.0114122656e+05
    1.8079619855e-02    1.0114055469e+05
    1.8089786172e-02    1.0113816406e+05
    1.8099782988e-02    1.0113853125e+05
    1.8109593540e-02    1.0113853906e+05
    1.8119852990e-02    1.0113850781e+05
    1.8129592761e-02    1.0113859375e+05
    1.8139781430e-02    1.0113853906e+05
    1.8149763346e-02    1.0113868750e+05
    1.8159862608e-02    1.0113889844e+05
    1.8169734627e-02    1.0113911719e+05
    1.8179716542e-02    1.0113917969e+05
    1.8189810216e-02    1.0113922656e+05
    1.8199658021e-02    1.0113939844e+05
    1.8209604546e-02    1.0113953125e+05
    1.8219646066e-02    1.0113952344e+05
    1.8229786307e-02    1.0113953125e+05
    1.8239645287e-02    1.0113960156e+05
    1.8249584362e-02    1.0113953125e+05
    1.8259607255e-02    1.0113952344e+05
    1.8269708380e-02    1.0113955469e+05
    1.8279507756e-02    1.0113958594e+05
    1.8289744854e-02    1.0113966406e+05
    1.8299652264e-02    1.0113972656e+05
    1.8309833482e-02    1.0113991406e+05
    1.8319671974e-02    1.0113997656e+05
    1.8329767510e-02    1.0114022656e+05
    1.8339855596e-02    1.0114046094e+05
    1.8349686638e-02    1.0114053125e+05
    1.8359784037e-02    1.0114047656e+05
    1.8369639292e-02    1.0114046094e+05
    1.8379792571e-02    1.0114075781e+05
    1.8389709294e-02    1.0114072656e+05
    1.8399633467e-02    1.0114081250e+05
    1.8409823999e-02    1.0114096094e+05
    1.8419753760e-02    1.0114108594e+05
    1.8429683521e-02    1.0114127344e+05
    1.8439872190e-02    1.0114153906e+05
    1.8449798226e-02    1.0114175781e+05
    1.8459727988e-02    1.0114191406e+05
    1.8469678238e-02    1.0114200000e+05
    1.8479645252e-02    1.0114208594e+05
    1.8489878625e-02    1.0114224219e+05
    1.8499847502e-02    1.0114236719e+05
    1.8509816378e-02    1.0114234375e+05
    1.8519785255e-02    1.0114228906e+05
    1.8529755995e-02    1.0114258594e+05
    1.8539724872e-02    1.0114265625e+05
    1.8549693748e-02    1.0114272656e+05
    1.8559662625e-02    1.0114285156e+05
    1.8569633365e-02    1.0114277344e+05
    1.8579883501e-02    1.0114283594e+05
    1.8589895219e-02    1.0114289844e+05
    1.8599659204e-02    1.0114307031e+05
    1.8609689549e-02    1.0114313281e+05
    1.8619719893e-02    1.0114310156e+05
    1.8629748374e-02    1.0114316406e+05
    1.8639776856e-02    1.0114327344e+05
    1.8649803475e-02    1.0114130469e+05
    1.8659831956e-02    1.0113916406e+05
    1.8669858575e-02    1.0113908594e+05
    1.8679888919e-02    1.0113914844e+05
    1.8689658493e-02    1.0113909375e+05
    1.8699694425e-02    1.0113900781e+05
    1.8709732220e-02    1.0113850781e+05
    1.8719771877e-02    1.0113846094e+05
    1.8729811534e-02    1.0113821875e+05
    1.8739851192e-02    1.0113825000e+05
    1.8749890849e-02    1.0113808594e+05
    1.8759664148e-02    1.0113796875e+05
    1.8769703805e-02    1.0113797656e+05
    1.8779741600e-02    1.0113813281e+05
    1.8789777532e-02    1.0113591406e+05
    1.8799815327e-02    1.0113578125e+05
    1.8809854984e-02    1.0113591406e+05
    1.8819892779e-02    1.0113600781e+05
    1.8829667941e-02    1.0113600781e+05
    1.8839707598e-02    1.0113590625e+05
    1.8849747255e-02    1.0113468750e+05
    1.8859788775e-02    1.0113493750e+05
    1.8869835883e-02    1.0113503906e+05
    1.8879886717e-02    1.0113538281e+05
    1.8889682367e-02    1.0113542969e+05
    1.8899744377e-02    1.0113564844e+05
    1.8909810111e-02    1.0113584375e+05
    1.8919873983e-02    1.0113591406e+05
    1.8929673359e-02    1.0113599219e+05
    1.8939737231e-02    1.0113503906e+05
    1.8949801102e-02    1.0113353125e+05
    1.8959861249e-02    1.0113372656e+05
    1.8969658762e-02    1.0113389844e+05
    1.8979717046e-02    1.0113416406e+05
    1.8989777192e-02    1.0113439844e+05
    1.8999837339e-02    1.0113455469e+05
    1.9009899348e-02    1.0113471875e+05
    1.9019698724e-02    1.0113475000e+05
    1.9029762596e-02    1.0113496875e+05
    1.9039828330e-02    1.0113509375e+05
    1.9049894065e-02    1.0113505469e+05
    1.9059697166e-02    1.0113508594e+05
    1.9069762900e-02    1.0113528125e+05
    1.9079830498e-02    1.0113535156e+05
    1.9089896232e-02    1.0113532031e+05
    1.9099699333e-02    1.0113553125e+05
    1.9109765068e-02    1.0113553125e+05
    1.9119828939e-02    1.0113569531e+05
    1.9129892811e-02    1.0113589844e+05
    1.9139692187e-02    1.0113619531e+05
    1.9149756059e-02    1.0113625000e+05
    1.9159827381e-02    1.0113649219e+05
    1.9169919193e-02    1.0113658594e+05
    1.9179763272e-02    1.0113669531e+05
    1.9189884886e-02    1.0113636719e+05
    1.9199740142e-02    1.0113153906e+05
    1.9209861755e-02    1.0112860156e+05
    1.9219715148e-02    1.0112885156e+05
    1.9229834899e-02    1.0112919531e+05
    1.9239688292e-02    1.0112938281e+05
    1.9249806181e-02    1.0112944531e+05
    1.9259927794e-02    1.0112962500e+05
    1.9269792363e-02    1.0112969531e+05
    1.9279669970e-02    1.0112967969e+05
    1.9289828837e-02    1.0112971094e+05
    1.9299725071e-02    1.0112964844e+05
    1.9309889525e-02    1.0112949219e+05
    1.9319785759e-02    1.0112943750e+05
    1.9329681993e-02    1.0112935156e+05
    1.9339842722e-02    1.0112955469e+05
    1.9349735230e-02    1.0112964844e+05
    1.9359895959e-02    1.0113002344e+05
    1.9369790331e-02    1.0113030469e+05
    1.9379692152e-02    1.0113040625e+05
    1.9389871508e-02    1.0113066406e+05
    1.9399793819e-02    1.0113088281e+05
    1.9409725443e-02    1.0113102344e+05
    1.9419929013e-02    1.0113128906e+05
    1.9429864362e-02    1.0113146094e+05
    1.9439799711e-02    1.0113159375e+05
[...]
    6.5135911107e-02    1.0109078906e+05
    6.5145812929e-02    1.0109117969e+05
    6.5156057477e-02    1.0109172656e+05
    6.5165959299e-02    1.0109218750e+05
    6.5175861120e-02    1.0109266406e+05
    6.5185755491e-02    1.0109318750e+05
    6.5196000040e-02    1.0109357031e+05
    6.5205901861e-02    1.0109399219e+05
    6.5215803683e-02    1.0109441406e+05
    6.5226048231e-02    1.0109477344e+05
    6.5235950053e-02    1.0109514844e+05
    6.5245851874e-02    1.0109568750e+05
    6.5255761147e-02    1.0109606250e+05
    6.5266005695e-02    1.0109663281e+05
    6.5275907516e-02    1.0109699219e+05
    6.5285809338e-02    1.0109742969e+05
    6.5296053886e-02    1.0109782031e+05
    6.5305955708e-02    1.0109818750e+05
    6.5315864980e-02    1.0109871875e+05
    6.5325766802e-02    1.0109918750e+05
    6.5336011350e-02    1.0109953906e+05
    6.5345913172e-02    1.0109985156e+05
    6.5355822444e-02    1.0110025000e+05
    6.5366066992e-02    1.0110058594e+05
    6.5375968814e-02    1.0110112500e+05
    6.5385870636e-02    1.0110141406e+05
    6.5395779908e-02    1.0110175000e+05
    6.5406024456e-02    1.0110211719e+05
    6.5415933728e-02    1.0110250000e+05
    6.5425835550e-02    1.0110287500e+05
    6.5435744822e-02    1.0110315625e+05
    6.5445989370e-02    1.0110353906e+05
    6.5455891192e-02    1.0110396094e+05
    6.5465800464e-02    1.0110415625e+05
    6.5476045012e-02    1.0110447656e+05
    6.5485954285e-02    1.0110503906e+05
    6.5495856106e-02    1.0110535156e+05
    6.5505765378e-02    1.0110559375e+05
    6.5516009927e-02    1.0110596875e+05
    6.5525911748e-02    1.0110624219e+05
    6.5535821021e-02    1.0110658594e+05
    6.5545730293e-02    1.0110668750e+05
    6.5555974841e-02    1.0110697656e+05
    6.5565884113e-02    1.0110727344e+05
    6.5575785935e-02    1.0110753125e+05
    6.5586037934e-02    1.0110789844e+05
    6.5595939755e-02    1.0110813281e+05
    6.5605849028e-02    1.0110834375e+05
    6.5615750849e-02    1.0110861719e+05
    6.5626002848e-02    1.0110903906e+05
    6.5635912120e-02    1.0110935156e+05
    6.5645813942e-02    1.0110978125e+05
    6.5655723214e-02    1.0111000781e+05
    6.5665967762e-02    1.0111012500e+05
    6.5675877035e-02    1.0111047656e+05
    6.5685778856e-02    1.0111082031e+05
    6.5695688128e-02    1.0111099219e+05
    6.5705940127e-02    1.0111147656e+05
    6.5715841949e-02    1.0111178125e+05
    6.5725751221e-02    1.0111236719e+05
    6.5736003220e-02    1.0111249219e+05
    6.5745905042e-02    1.0111278125e+05
    6.5755814314e-02    1.0111310156e+05
    6.5765723586e-02    1.0111327344e+05
    6.5775968134e-02    1.0111349219e+05
    6.5785877407e-02    1.0111357031e+05
    6.5795786679e-02    1.0111383594e+05
    6.5805695951e-02    1.0111414844e+05
    6.5815940499e-02    1.0111437500e+05
    6.5825849771e-02    1.0111469531e+05
    6.5835759044e-02    1.0111490625e+05
    6.5846003592e-02    1.0111525781e+05
    6.5855912864e-02    1.0111541406e+05
    6.5865822136e-02    1.0111567969e+05
    6.5875723958e-02    1.0111590625e+05
    6.5885975957e-02    1.0111616406e+05
    6.5895885229e-02    1.0111643750e+05
    6.5905794501e-02    1.0111669531e+05
    6.5915703773e-02    1.0111662500e+05
    6.5925948322e-02    1.0111692969e+05
    6.5935857594e-02    1.0111716406e+05
    6.5945766866e-02    1.0111733594e+05
    6.5955676138e-02    1.0111750781e+05
    6.5965920687e-02    1.0111759375e+05
    6.5975829959e-02    1.0111722656e+05
    6.5985739231e-02    1.0111716406e+05
    6.5995648503e-02    1.0111724219e+05
    6.6005900502e-02    1.0111739844e+05
    6.6015802324e-02    1.0111749219e+05
    6.6025711596e-02    1.0111764844e+05
    6.6035963595e-02    1.0111763281e+05
    6.6045872867e-02    1.0111653906e+05
    6.6055782139e-02    1.0111653906e+05
    6.6065691411e-02    1.0111647656e+05
    6.6075943410e-02    1.0111636719e+05
    6.6085852683e-02    1.0111633594e+05
    6.6095754504e-02    1.0111613281e+05
    6.6105663776e-02    1.0111583594e+05
    6.6115915775e-02    1.0111549219e+05
    6.6125825047e-02    1.0111550000e+05
    6.6135734320e-02    1.0111536719e+05
    6.6145643592e-02    1.0111502344e+05
    6.6155895591e-02    1.0111489844e+05
    6.6165804863e-02    1.0111477344e+05
    6.6175714135e-02    1.0111460156e+05
    6.6185623407e-02    1.0111377344e+05
    6.6195875406e-02    1.0111364844e+05
    6.6205784678e-02    1.0111371875e+05
    6.6215693951e-02    1.0111377344e+05
    6.6225945950e-02    1.0111377344e+05
    6.6235855222e-02    1.0111389844e+05
    6.6245764494e-02    1.0111400781e+05
    6.6255673766e-02    1.0111421094e+05
    6.6265925765e-02    1.0111421094e+05
    6.6275835037e-02    1.0111435156e+05
    6.6285744309e-02    1.0111452344e+05
    6.6295653582e-02    1.0111453906e+05
    6.6305905581e-02    1.0111464844e+05
    6.6315814853e-02    1.0111496094e+05
    6.6325724125e-02    1.0111496875e+05
    6.6335633397e-02    1.0111511719e+05
    6.6345885396e-02    1.0111503906e+05
    6.6355794668e-02    1.0111521094e+05
    6.6365703940e-02    1.0111516406e+05
    6.6375613213e-02    1.0111500000e+05
    6.6385865211e-02    1.0111471094e+05
    6.6395774484e-02    1.0111466406e+05
    6.6405683756e-02    1.0111462500e+05
    6.6415600479e-02    1.0111460156e+05
    6.6425852478e-02    1.0111353906e+05
    6.6435761750e-02    1.0111327344e+05
    6.6445671022e-02    1.0111327344e+05
    6.6455923021e-02    1.0111328906e+05
    6.6465832293e-02    1.0111318750e+05
    6.6475741565e-02    1.0111335156e+05
    6.6485650837e-02    1.0111255469e+05
    6.6495902836e-02    1.0111190625e+05
    6.6505819559e-02    1.0111060156e+05
    6.6515728831e-02    1.0111065625e+05
    6.6525638103e-02    1.0111063281e+05
    6.6535890102e-02    1.0111071094e+05
    6.6545799375e-02    1.0111027344e+05
    6.6555708647e-02    1.0110996094e+05
    6.6565625370e-02    1.0110965625e+05
    6.6575877368e-02    1.0110959375e+05
    6.6585786641e-02    1.0110922656e+05
    6.6595695913e-02    1.0110891406e+05
    6.6605605185e-02    1.0110871094e+05
    6.6615864635e-02    1.0110859375e+05
    6.6625773907e-02    1.0110837500e+05
    6.6635683179e-02    1.0110814844e+05
    6.6645592451e-02    1.0110796094e+05
    6.6655844450e-02    1.0110741406e+05
    6.6665761173e-02    1.0110714844e+05
    6.6675670445e-02    1.0110690625e+05
    6.6685579717e-02    1.0110690625e+05
    6.6695831716e-02    1.0110671875e+05
    6.6705748439e-02    1.0110664844e+05
    6.6715657711e-02    1.0110650000e+05
    6.6725566983e-02    1.0110627344e+05
    6.6735826433e-02    1.0110585156e+05
    6.6745735705e-02    1.0110572656e+05
    6.6755644977e-02    1.0110541406e+05
    6.6765561700e-02    1.0110527344e+05
    6.6775813699e-02    1.0110427344e+05
    6.6785722971e-02    1.0110291406e+05
    6.6795632243e-02    1.0110214844e+05
    6.6805548966e-02    1.0110228125e+05
    6.6815800965e-02    1.0110202344e+05
    6.6825710237e-02    1.0110197656e+05
    6.6835626960e-02    1.0110185156e+05
    6.6845536232e-02    1.0110169531e+05
    6.6855788231e-02    1.0110128906e+05
    6.6865697503e-02    1.0110047656e+05
    6.6875614226e-02    1.0110067969e+05
    6.6885866225e-02    1.0110061719e+05
    6.6895775497e-02    1.0110019531e+05
    6.6905692220e-02    1.0109946094e+05
    6.6915601492e-02    1.0109902344e+05
    6.6925860941e-02    1.0109916406e+05
    6.6935770214e-02    1.0109868750e+05
    6.6945679486e-02    1.0109847656e+05
    6.6955596209e-02    1.0109827344e+05
    6.6965848207e-02    1.0109816406e+05
    6.6975764930e-02    1.0109809375e+05
    6.6985681653e-02    1.0109802344e+05
    6.6995590925e-02    1.0109678906e+05
    6.7005850375e-02    1.0109696094e+05
    6.7015759647e-02    1.0109700000e+05
    6.7025676370e-02    1.0109708594e+05
    6.7035593092e-02    1.0109700000e+05
    6.7045509815e-02    1.0109689844e+05
    6.7055761814e-02    1.0109663281e+05
    6.7065678537e-02    1.0109652344e+05
    6.7075595260e-02    1.0109639844e+05
    6.7085511982e-02    1.0109633594e+05
    6.7095771432e-02    1.0109627344e+05
    6.7105688155e-02    1.0109625000e+05
    6.7115604877e-02    1.0109610156e+05
    6.7125521600e-02    1.0109591406e+05
    6.7135781050e-02    1.0109571094e+05
    6.7145697773e-02    1.0109558594e+05
    6.7155614495e-02    1.0109536719e+05
    6.7165531218e-02    1.0109524219e+05
    6.7175790668e-02    1.0109496094e+05
    6.7185707390e-02    1.0109508594e+05
    6.7195631564e-02    1.0109524219e+05
    6.7205548286e-02    1.0109524219e+05
    6.7215807736e-02    1.0109514844e+05
    6.7225724459e-02    1.0109515625e+05
    6.7235641181e-02    1.0109533594e+05
    6.7245565355e-02    1.0109542969e+05
    6.7255482078e-02    1.0109550781e+05
    6.7265741527e-02    1.0109574219e+05
    6.7275658250e-02    1.0109578906e+05
    6.7285574973e-02    1.0109584375e+05
    6.7295499146e-02    1.0109590625e+05
    6.7305758595e-02    1.0109603906e+05
    6.7315675318e-02    1.0109610156e+05
    6.7325599492e-02    1.0109614844e+05
    6.7335516214e-02    1.0109632031e+05
    6.7345775664e-02    1.0109655469e+05
    6.7355692387e-02    1.0109672656e+05
    6.7365616560e-02    1.0109687500e+05
    6.7375533283e-02    1.0109691406e+05
    6.7385792732e-02    1.0109714844e+05
    6.7395716906e-02    1.0109717969e+05
    6.7405633628e-02    1.0109741406e+05
    6.7415557802e-02    1.0109735156e+05
    6.7425474524e-02    1.0109747656e+05
    6.7435733974e-02    1.0109772656e+05
    6.7445658147e-02    1.0109787500e+05
    6.7455574870e-02    1.0109800781e+05
    6.7465499043e-02    1.0109813281e+05
    6.7475758493e-02    1.0109827344e+05
    6.7485682666e-02    1.0109835156e+05
    6.7495599389e-02    1.0109849219e+05
    6.7505523562e-02    1.0109853906e+05
    6.7515783012e-02    1.0109864844e+05
    6.7525707185e-02    1.0109869531e+05
    6.7535623908e-02    1.0109885156e+05
    6.7545548081e-02    1.0109894531e+05
    6.7555472255e-02    1.0109899219e+05
    6.7565731704e-02    1.0109903906e+05
    6.7575655878e-02    1.0109910156e+05
    6.7585572600e-02    1.0109922656e+05
    6.7595496774e-02    1.0109930469e+05
    6.7605763674e-02    1.0109938281e+05
    6.7615680397e-02    1.0109939844e+05
    6.7625604570e-02    1.0109935156e+05
    6.7635528743e-02    1.0109928906e+05
    6.7645445466e-02    1.0109928906e+05
    6.7655712366e-02    1.0109922656e+05
    6.7665629089e-02    1.0109928125e+05
    6.7675553262e-02    1.0109952344e+05
    6.7685477436e-02    1.0109983594e+05
    6.7695736885e-02    1.0110003125e+05
    6.7705661058e-02    1.0110019531e+05
    6.7715585232e-02    1.0110033594e+05
    6.7725509405e-02    1.0110066406e+05
    6.7735426128e-02    1.0110103125e+05
    6.7745693028e-02    1.0110107031e+05
    6.7755617201e-02    1.0110105469e+05
    6.7765533924e-02    1.0110128125e+05
    6.7775458097e-02    1.0110146094e+05
    6.7785724998e-02    1.0110158594e+05
    6.7795649171e-02    1.0110203125e+05
    6.7805565894e-02    1.0110228125e+05
    6.7815490067e-02    1.0110252344e+05
    6.7825414240e-02    1.0110278906e+05
    6.7835681140e-02    1.0110305469e+05
    6.7845597863e-02    1.0110336719e+05
    6.7855522037e-02    1.0110360156e+05
    6.7865446210e-02    1.0110390625e+05
    6.7875713110e-02    1.0110427344e+05
    6.7885637283e-02    1.0110443750e+05
    6.7895554006e-02    1.0110468750e+05
    6.7905478179e-02    1.0110503906e+05
    6.7915402353e-02    1.0110531250e+05
    6.7925669253e-02    1.0110543750e+05
    6.7935593426e-02    1.0110566406e+05
    6.7945517600e-02    1.0110597656e+05
    6.7955434322e-02    1.0110621094e+05
    6.7965701222e-02    1.0110642969e+05
    6.7975625396e-02    1.0110671094e+05
    6.7985549569e-02    1.0110675781e+05
    6.7995473742e-02    1.0110689844e+05
    6.8005397916e-02    1.0110714844e+05
    6.8015657365e-02    1.0110728906e+05
    6.8025581539e-02    1.0110775781e+05
    6.8035505712e-02    1.0110777344e+05
    6.8045429885e-02    1.0110811719e+05
    6.8055696785e-02    1.0110828906e+05
    6.8065613508e-02    1.0110861719e+05
    6.8075537682e-02    1.0110868750e+05
    6.8085461855e-02    1.0110897656e+05
    6.8095386028e-02    1.0110914844e+05
    6.8105652928e-02    1.0110932031e+05
    6.8115577102e-02    1.0110939844e+05
    6.8125501275e-02    1.0110944531e+05
    6.8135425448e-02    1.0110966406e+05
    6.8145692348e-02    1.0110987500e+05
    6.8155616522e-02    1.0111015625e+05
    6.8165540695e-02    1.0111024219e+05
    6.8175464869e-02    1.0111052344e+05
    6.8185389042e-02    1.0111066406e+05
    6.8195655942e-02    1.0111065625e+05
    6.8205580115e-02    1.0111060156e+05
    6.8215504289e-02    1.0111072656e+05
    6.8225428462e-02    1.0111085156e+05
    6.8235352635e-02    1.0111103906e+05
    6.8245619535e-02    1.0111128125e+05
    6.8255543709e-02    1.0111146875e+05
    6.8265467882e-02    1.0111156250e+05
    6.8275392056e-02    1.0111152344e+05
    6.8285658956e-02    1.0111085156e+05
    6.8295583129e-02    1.0111097656e+05
    6.8305514753e-02    1.0111116406e+05
    6.8315438926e-02    1.0111122656e+05
    6.8325363100e-02    1.0111149219e+05
    6.8335630000e-02    1.0111175000e+05
    6.8345554173e-02    1.0111200781e+05
    6.8355485797e-02    1.0111218750e+05
    6.8365409970e-02    1.0111225000e+05
    6.8375334144e-02    1.0111240625e+05
    6.8385601044e-02    1.0111240625e+05
    6.8395525217e-02    1.0111260156e+05
    6.8405456841e-02    1.0111272656e+05
    6.8415381014e-02    1.0111300000e+05
    6.8425647914e-02    1.0111321094e+05
    6.8435572088e-02    1.0111347656e+05
    6.8445503712e-02    1.0111216406e+05
    6.8455427885e-02    1.0111217969e+05
    6.8465352058e-02    1.0111227344e+05
    6.8475626409e-02    1.0111128125e+05
    6.8485550582e-02    1.0111135156e+05
    6.8495482206e-02    1.0111150000e+05
    6.8505406380e-02    1.0111172656e+05
    6.8515330553e-02    1.0111197656e+05
    6.8525604904e-02    1.0111215625e+05
    6.8535529077e-02    1.0111247656e+05
    6.8545460701e-02    1.0111265625e+05
    6.8555384874e-02    1.0111178906e+05
    6.8565316498e-02    1.0111182031e+05
    6.8575583398e-02    1.0111202344e+05
    6.8585507572e-02    1.0111216406e+05
    6.8595439196e-02    1.0111233594e+05
    6.8605363369e-02    1.0111252344e+05
    6.8615637720e-02    1.0111288281e+05
    6.8625561893e-02    1.0111283594e+05
    6.8635493517e-02    1.0111216406e+05
    6.8645417690e-02    1.0111239844e+05
    6.8655349314e-02    1.0111260156e+05
    6.8665616214e-02    1.0111127344e+05
    6.8675547838e-02    1.0111078906e+05
    6.8685472012e-02    1.0110915625e+05
    6.8695403636e-02    1.0110933594e+05
    6.8705327809e-02    1.0110949219e+05
    6.8715602160e-02    1.0110977344e+05
    6.8725533783e-02    1.0110992969e+05
    6.8735457957e-02    1.0110881250e+05
    6.8745389581e-02    1.0110840625e+05
    6.8755321205e-02    1.0110836719e+05
    6.8765588105e-02    1.0110767969e+05
    6.8775519729e-02    1.0110796094e+05
    6.8785451353e-02    1.0110791406e+05
    6.8795375526e-02    1.0110591406e+05
    6.8805307150e-02    1.0110578906e+05
    6.8815581501e-02    1.0110600781e+05
    6.8825513124e-02    1.0110516406e+05
    6.8835444748e-02    1.0110492969e+05
    6.8845376372e-02    1.0110511719e+05
    6.8855307996e-02    1.0110500000e+05
    6.8865582347e-02    1.0110471094e+05
    6.8875513971e-02    1.0110424219e+05
    6.8885453045e-02    1.0110408594e+05
    6.8895384669e-02    1.0110397656e+05
    6.8905316293e-02    1.0110303906e+05
    6.8915590644e-02    1.0110308594e+05
    6.8925522268e-02    1.0110322656e+05
    6.8935453892e-02    1.0110325000e+05
    6.8945392966e-02    1.0110259375e+05
    6.8955324590e-02    1.0110281250e+05
    6.8965256214e-02    1.0110308594e+05
    6.8975530565e-02    1.0110314844e+05
    6.8985462189e-02    1.0110317969e+05
    6.8995401263e-02    1.0110325000e+05
    6.9005332887e-02    1.0110239844e+05
    6.9015264511e-02    1.0110206250e+05
    6.9025546312e-02    1.0110150781e+05
    6.9035477936e-02    1.0110117969e+05
    6.9045409560e-02    1.0109941406e+05
    6.9055348635e-02    1.0109928125e+05
    6.9065280259e-02    1.0109950781e+05
    6.9075554609e-02    1.0109947656e+05
    6.9085493684e-02    1.0109953906e+05
    6.9095425308e-02    1.0109975000e+05
    6.9105356932e-02    1.0109987500e+05
    6.9115296006e-02    1.0110010156e+05
    6.9125570357e-02    1.0110016406e+05
    6.9135509431e-02    1.0109864844e+05
    6.9145441055e-02    1.0109864844e+05
    6.9155380130e-02    1.0109896094e+05
    6.9165311754e-02    1.0109897656e+05
    6.9175250828e-02    1.0109883594e+05
    6.9185525179e-02    1.0109897656e+05
    6.9195464253e-02    1.0109914844e+05
    6.9205403328e-02    1.0109916406e+05
    6.9215334952e-02    1.0109905469e+05
    6.9225274026e-02    1.0109868750e+05
    6.9235555828e-02    1.0109838281e+05
    6.9245487452e-02    1.0109772656e+05
    6.9255426526e-02    1.0109790625e+05
    6.9265365601e-02    1.0109813281e+05
    6.9275297225e-02    1.0109728906e+05
    6.9285236299e-02    1.0109728906e+05
    6.9295518100e-02    1.0109602344e+05
    6.9305449724e-02    1.0109628906e+05
    6.9315388799e-02    1.0109633594e+05
    6.9325327873e-02    1.0109585156e+05
    6.9335259497e-02    1.0109568750e+05
    6.9345541298e-02    1.0109574219e+05
    6.9355480373e-02    1.0109584375e+05
    6.9365411997e-02    1.0109603125e+05
    6.9375351071e-02    1.0109610156e+05
    6.9385290146e-02    1.0109610156e+05
    6.9395229220e-02    1.0109625781e+05
    6.9405503571e-02    1.0109641406e+05
    6.9415442646e-02    1.0109635156e+05
    6.9425381720e-02    1.0109641406e+05
    6.9435320795e-02    1.0109582031e+05
    6.9445259869e-02    1.0109544531e+05
    6.9455191493e-02    1.0109524219e+05
    6.9465473294e-02    1.0109532031e+05
    6.9475412369e-02    1.0109546094e+05
    6.9485351443e-02    1.0109553906e+05
    6.9495283067e-02    1.0109578906e+05
    6.9505222142e-02    1.0109585156e+05
    6.9515503943e-02    1.0109613281e+05
    6.9525443017e-02    1.0109616406e+05
    6.9535382092e-02    1.0109481250e+05
    6.9545313716e-02    1.0109511719e+05
    6.9555252790e-02    1.0109535156e+05
    6.9565191865e-02    1.0109543750e+05
    6.9575473666e-02    1.0109550000e+05
    6.9585412741e-02    1.0109553906e+05
    6.9595351815e-02    1.0109577344e+05
    6.9605290890e-02    1.0109453125e+05
    6.9615229964e-02    1.0109408594e+05
    6.9625169039e-02    1.0109419531e+05
    6.9635450840e-02    1.0109421875e+05
    6.9645389915e-02    1.0109432031e+05
    6.9655321538e-02    1.0109446875e+05
    6.9665260613e-02    1.0109469531e+05
    6.9675199687e-02    1.0109490625e+05
    6.9685481489e-02    1.0109496094e+05
    6.9695420563e-02    1.0109481250e+05
    6.9705359638e-02    1.0109502344e+05
    6.9715298712e-02    1.0109496875e+05
    6.9725237787e-02    1.0109510156e+05
    6.9735176861e-02    1.0109518750e+05
    6.9745458663e-02    1.0109528125e+05
    6.9755397737e-02    1.0109491406e+05
    6.9765336812e-02    1.0109302344e+05
    6.9775275886e-02    1.0109344531e+05
    6.9785214961e-02    1.0109367969e+05
    6.9795154035e-02    1.0109374219e+05
    6.9805435836e-02    1.0109390625e+05
    6.9815382361e-02    1.0109387500e+05
    6.9825321436e-02    1.0109403125e+05
    6.9835260510e-02    1.0109417969e+05
    6.9845199585e-02    1.0109415625e+05
    6.9855138659e-02    1.0109362500e+05
    6.9865420461e-02    1.0109157031e+05
    6.9875359535e-02    1.0109172656e+05
    6.9885298610e-02    1.0109167969e+05
    6.9895237684e-02    1.0109178906e+05
    6.9905176759e-02    1.0109194531e+05
    6.9915458560e-02    1.0109139844e+05
    6.9925405085e-02    1.0109105469e+05
    6.9935344160e-02    1.0109110156e+05
    6.9945283234e-02    1.0109118750e+05
    6.9955222309e-02    1.0109119531e+05
    6.9965161383e-02    1.0109122656e+05
    6.9975443184e-02    1.0109046094e+05
    6.9985382259e-02    1.0109046094e+05
    6.9995321333e-02    1.0109050781e+05
endcurve
