Curveplot
LS-DYNA keyword deck by LS-PrePost                          
Time
Pressure
Defined Connection
Pressure @ 81 #pts=3501
* Minval=     9.2568062500e+04 at time=         0.0349997766
* Maxval=     1.3157560938e+05 at time=         0.0225100350
    0.0000000000e+00    1.0120000000e+05
    9.9487460830e-06    1.0119999219e+05
    1.9994327886e-05    1.0119997656e+05
    2.9991859265e-05    1.0119997656e+05
    3.9972590457e-05    1.0119997656e+05
    4.9951340770e-05    1.0119997656e+05
    5.9993966715e-05    1.0119997656e+05
    6.9975663791e-05    1.0119997656e+05
    7.9978955910e-05    1.0119997656e+05
    8.9949622634e-05    1.0119997656e+05
    9.9944307294e-05    1.0119997656e+05
    1.0994900367e-04    1.0119997656e+05
    1.1995161185e-04    1.0119997656e+05
    1.2994138524e-04    1.0119997656e+05
    1.3998319628e-04    1.0119997656e+05
    1.4999244013e-04    1.0119997656e+05
    1.5995698050e-04    1.0119974219e+05
    1.6994628822e-04    1.0119972656e+05
    1.7995307280e-04    1.0119972656e+05
    1.8996937433e-04    1.0119972656e+05
    1.9998737844e-04    1.0119972656e+05
    2.0999902335e-04    1.0119971094e+05
    2.1999586897e-04    1.0119967969e+05
    2.2996983898e-04    1.0119965625e+05
    2.3991284252e-04    1.0119953906e+05
    2.4990842212e-04    1.0119978125e+05
    2.5995148462e-04    1.0119971094e+05
    2.6994047221e-04    1.0119977344e+05
    2.7995352866e-04    1.0119939844e+05
    2.8997956542e-04    1.0119939844e+05
    2.9991928022e-04    1.0119942969e+05
    3.0996571877e-04    1.0119991406e+05
    3.1992004369e-04    1.0120014844e+05
    3.2997931703e-04    1.0119989844e+05
    3.3994071418e-04    1.0119990625e+05
    3.4990234417e-04    1.0119940625e+05
    3.5996691440e-04    1.0119928125e+05
    3.6992464447e-04    1.0119925000e+05
    3.7998383050e-04    1.0119921094e+05
    3.8993131602e-04    1.0119924219e+05
    3.9997906424e-04    1.0119910156e+05
    4.0990929119e-04    1.0119903906e+05
    4.1993855848e-04    1.0119896094e+05
    4.2995673721e-04    1.0119908594e+05
    4.3996184831e-04    1.0119932031e+05
    4.4995022472e-04    1.0119913281e+05
    4.5992361265e-04    1.0119924219e+05
    4.6999484766e-04    1.0119924219e+05
    4.7993005137e-04    1.0119903906e+05
    4.8996135592e-04    1.0119883594e+05
    4.9997057067e-04    1.0119883594e+05
    5.0995574566e-04    1.0119884375e+05
    5.1991501823e-04    1.0119902344e+05
    5.2996940212e-04    1.0119922656e+05
    5.3999625379e-04    1.0119909375e+05
    5.4999353597e-04    1.0119924219e+05
    5.5995694129e-04    1.0119960156e+05
    5.6988897268e-04    1.0119969531e+05
    5.7991448557e-04    1.0119978125e+05
    5.8990460820e-04    1.0119977344e+05
    5.9998879442e-04    1.0119965625e+05
    6.0990313068e-04    1.0119978125e+05
    6.1990931863e-04    1.0119971094e+05
    6.2987382989e-04    1.0119977344e+05
    6.3993112417e-04    1.0119977344e+05
    6.4994452987e-04    1.0119975781e+05
    6.5991177689e-04    1.0119977344e+05
    6.6997105023e-04    1.0119999219e+05
    6.7998183658e-04    1.0119977344e+05
    6.8994174944e-04    1.0119978906e+05
    6.9998943945e-04    1.0119978906e+05
    7.0998701267e-04    1.0120005469e+05
    7.1992859012e-04    1.0119965625e+05
    7.2996027302e-04    1.0119935156e+05
    7.3993322439e-04    1.0119938281e+05
    7.4999604840e-04    1.0119977344e+05
    7.5999775436e-04    1.0119966406e+05
    7.6993554831e-04    1.0119966406e+05
    7.7996146865e-04    1.0119965625e+05
    7.8992074123e-04    1.0119950000e+05
    7.9996808199e-04    1.0119977344e+05
    8.0994568998e-04    1.0119968750e+05
    8.1985036377e-04    1.0119975781e+05
    8.2984118490e-04    1.0119982031e+05
    8.3991931751e-04    1.0119978906e+05
    8.4992143093e-04    1.0119980469e+05
    8.5984414909e-04    1.0119958594e+05
    8.6985202506e-04    1.0119974219e+05
    8.7994628120e-04    1.0119972656e+05
    8.8995759143e-04    1.0119980469e+05
    8.9987955289e-04    1.0119977344e+05
    9.0988632292e-04    1.0120003125e+05
    9.1997988056e-04    1.0119997656e+05
    9.2998315813e-04    1.0119994531e+05
    9.3989283778e-04    1.0119985156e+05
    9.4988470664e-04    1.0119971875e+05
    9.5996016171e-04    1.0119969531e+05
    9.6993736224e-04    1.0119965625e+05
    9.7999721766e-04    1.0119961719e+05
    9.8995573353e-04    1.0119964844e+05
    9.9999585655e-04    1.0119950781e+05
    1.0099302744e-03    1.0119946094e+05
    1.0199457174e-03    1.0119965625e+05
    1.0298516136e-03    1.0119977344e+05
    1.0398377199e-03    1.0119991406e+05
    1.0499045020e-03    1.0119977344e+05
    1.0598567314e-03    1.0119959375e+05
    1.0698894039e-03    1.0119941406e+05
    1.0798035655e-03    1.0119939844e+05
    1.0899974732e-03    1.0119950000e+05
    1.0998696089e-03    1.0119955469e+05
    1.1098200921e-03    1.0119977344e+05
    1.1198490392e-03    1.0119965625e+05
    1.1299585458e-03    1.0119967969e+05
    1.1399401119e-03    1.0119974219e+05
    1.1497910600e-03    1.0119957031e+05
    1.1599301361e-03    1.0119972656e+05
    1.1699367315e-03    1.0120002344e+05
    1.1798064224e-03    1.0119989844e+05
    1.1899712263e-03    1.0119971094e+05
    1.1999977287e-03    1.0119964844e+05
    1.2098826701e-03    1.0119974219e+05
    1.2198442128e-03    1.0119964844e+05
    1.2298837537e-03    1.0119942969e+05
    1.2397773098e-03    1.0119953125e+05
    1.2499745935e-03    1.0119946094e+05
    1.2597948080e-03    1.0119936719e+05
    1.2699204963e-03    1.0119936719e+05
    1.2798942626e-03    1.0119916406e+05
    1.2899461435e-03    1.0119884375e+05
    1.2998390011e-03    1.0119902344e+05
    1.3098082272e-03    1.0119902344e+05
    1.3198551023e-03    1.0119912500e+05
    1.3299806742e-03    1.0119919531e+05
    1.3399423333e-03    1.0119897656e+05
    1.3499829220e-03    1.0119917969e+05
    1.3598545920e-03    1.0119912500e+05
    1.3698007679e-03    1.0119912500e+05
    1.3798257569e-03    1.0119894531e+05
    1.3899280457e-03    1.0119896094e+05
    1.3998558279e-03    1.0119889844e+05
    1.4098602114e-03    1.0119858594e+05
    1.4199422440e-03    1.0119860156e+05
    1.4298419701e-03    1.0119842969e+05
    1.4398184139e-03    1.0119850000e+05
    1.4498730889e-03    1.0119843750e+05
    1.4597389381e-03    1.0119858594e+05
    1.4699508902e-03    1.0119863281e+05
    1.4799722703e-03    1.0119863281e+05
    1.4897993533e-03    1.0119866406e+05
    1.4999781270e-03    1.0119864844e+05
    1.5099598095e-03    1.0119846875e+05
    1.5197392786e-03    1.0119855469e+05
    1.5298762592e-03    1.0119866406e+05
    1.5398099786e-03    1.0119822656e+05
    1.5498212306e-03    1.0119816406e+05
    1.5599116450e-03    1.0119841406e+05
    1.5697914641e-03    1.0119834375e+05
    1.5797483502e-03    1.0119833594e+05
    1.5897841658e-03    1.0119841406e+05
    1.5998996096e-03    1.0119841406e+05
    1.6097961925e-03    1.0119841406e+05
    1.6197705409e-03    1.0119871094e+05
    1.6298246337e-03    1.0119859375e+05
    1.6399594024e-03    1.0119866406e+05
    1.6498657642e-03    1.0119866406e+05
    1.6598511720e-03    1.0119866406e+05
    1.6699164407e-03    1.0119860156e+05
    1.6797456192e-03    1.0119862500e+05
    1.6899737529e-03    1.0119852344e+05
    1.6999632353e-03    1.0119761719e+05
    1.7097080126e-03    1.0119752344e+05
    1.7198586138e-03    1.0119735156e+05
    1.7297618324e-03    1.0119747656e+05
    1.7397453776e-03    1.0119762500e+05
    1.7498109955e-03    1.0119786719e+05
    1.7599593848e-03    1.0119796875e+05
    1.7698508454e-03    1.0119815625e+05
    1.7798186745e-03    1.0119819531e+05
    1.7898724182e-03    1.0119842969e+05
    1.7996605020e-03    1.0119852344e+05
    1.8098823493e-03    1.0119875781e+05
    1.8198348116e-03    1.0119869531e+05
    1.8298706273e-03    1.0119867969e+05
    1.8399913097e-03    1.0119868750e+05
    1.8498331774e-03    1.0119868750e+05
    1.8597568851e-03    1.0119857031e+05
    1.8697642954e-03    1.0119864844e+05
    1.8798575038e-03    1.0119868750e+05
    1.8896594411e-03    1.0119884375e+05
    1.8999258755e-03    1.0119890625e+05
    1.9098987104e-03    1.0119894531e+05
    1.9199574599e-03    1.0119896094e+05
    1.9297124818e-03    1.0119903906e+05
    1.9399460871e-03    1.0119907031e+05
    1.9498728216e-03    1.0119915625e+05
    1.9598866347e-03    1.0119914844e+05
    1.9699891564e-03    1.0119919531e+05
    1.9797731657e-03    1.0119924219e+05
    1.9896426238e-03    1.0119927344e+05
    1.9995993935e-03    1.0119928125e+05
    2.0096460357e-03    1.0119927344e+05
    2.0197837148e-03    1.0119927344e+05
    2.0295870490e-03    1.0119927344e+05
    2.0399098285e-03    1.0119927344e+05
    2.0498733502e-03    1.0119924219e+05
    2.0599018317e-03    1.0119914844e+05
    2.0699794404e-03    1.0119922656e+05
    2.0796523895e-03    1.0119939844e+05
    2.0898077637e-03    1.0119946094e+05
    2.0999824628e-03    1.0119961719e+05
    2.1097287536e-03    1.0119975781e+05
    2.1199297626e-03    1.0119983594e+05
    2.1297254134e-03    1.0119982031e+05
    2.1399187390e-03    1.0119975000e+05
    2.1497185808e-03    1.0119978125e+05
    2.1599307656e-03    1.0119994531e+05
    2.1696886979e-03    1.0119983594e+05
    2.1799157839e-03    1.0119977344e+05
    2.1896921098e-03    1.0119983594e+05
    2.1998845041e-03    1.0119996094e+05
    2.2096550092e-03    1.0120003906e+05
    2.2198366933e-03    1.0120021875e+05
    2.2295846138e-03    1.0120022656e+05
    2.2397639696e-03    1.0120015625e+05
    2.2499910556e-03    1.0120028906e+05
    2.2596940398e-03    1.0120025781e+05
    2.2698307876e-03    1.0120041406e+05
    2.2795859259e-03    1.0120064844e+05
    2.2897683084e-03    1.0120078906e+05
    2.2995939944e-03    1.0120081250e+05
    2.3099256214e-03    1.0120044531e+05
    2.3198742419e-03    1.0120041406e+05
    2.3298801389e-03    1.0120024219e+05
    2.3399200290e-03    1.0120025781e+05
    2.3495275527e-03    1.0120025781e+05
    2.3596584797e-03    1.0120025781e+05
    2.3697856814e-03    1.0120022656e+05
    2.3799028713e-03    1.0119999219e+05
    2.3895541672e-03    1.0120010156e+05
    2.3996224627e-03    1.0120014844e+05
    2.4096332490e-03    1.0120016406e+05
    2.4195592850e-03    1.0120019531e+05
    2.4298415519e-03    1.0120016406e+05
    2.4395857472e-03    1.0120021094e+05
    2.4496817496e-03    1.0120022656e+05
    2.4596869480e-03    1.0120033594e+05
    2.4696050677e-03    1.0120027344e+05
    2.4798640516e-03    1.0120027344e+05
    2.4896115065e-03    1.0120021094e+05
    2.4996977299e-03    1.0120021094e+05
    2.5097003672e-03    1.0120008594e+05
    2.5196210481e-03    1.0119982031e+05
    2.5298704859e-03    1.0119975781e+05
    2.5396312121e-03    1.0119980469e+05
    2.5497185998e-03    1.0119967969e+05
    2.5597256608e-03    1.0119962500e+05
    2.5696547236e-03    1.0119946875e+05
    2.5799002033e-03    1.0119937500e+05
    2.5896755978e-03    1.0119936719e+05
    2.5997639168e-03    1.0119933594e+05
    2.6097751688e-03    1.0119936719e+05
    2.6197100524e-03    1.0119924219e+05
    2.6299490128e-03    1.0119932031e+05
    2.6397341862e-03    1.0119933594e+05
    2.6498204097e-03    1.0119939844e+05
    2.6598304976e-03    1.0119922656e+05
    2.6697665453e-03    1.0119924219e+05
    2.6799927000e-03    1.0119907031e+05
    2.6897802018e-03    1.0119903125e+05
    2.6998557150e-03    1.0119889844e+05
    2.7098557912e-03    1.0119875000e+05
    2.7197818272e-03    1.0119871875e+05
    2.7299849316e-03    1.0119842969e+05
    2.7397628874e-03    1.0119841406e+05
    2.7498148847e-03    1.0119847656e+05
    2.7597912122e-03    1.0119842969e+05
    2.7696928009e-03    1.0119850000e+05
    2.7798584197e-03    1.0119869531e+05
    2.7899458073e-03    1.0119883594e+05
    2.7999556623e-03    1.0119878906e+05
    2.8098882176e-03    1.0119891406e+05
    2.8197453357e-03    1.0119891406e+05
    2.8298515826e-03    1.0119896094e+05
    2.8398782015e-03    1.0119903125e+05
    2.8498254251e-03    1.0119918750e+05
    2.8596937191e-03    1.0119921094e+05
    2.8697978705e-03    1.0119924219e+05
    2.8798191343e-03    1.0119918750e+05
    2.8897572774e-03    1.0119927344e+05
    2.8999201022e-03    1.0119928125e+05
    2.9099951498e-03    1.0119927344e+05
    2.9199833516e-03    1.0119925000e+05
    2.9298844747e-03    1.0119944531e+05
    2.9399946798e-03    1.0119935156e+05
    2.9497197829e-03    1.0119918750e+05
    2.9599398840e-03    1.0119866406e+05
    2.9697748832e-03    1.0119871094e+05
    2.9798028991e-03    1.0119867969e+05
    2.9897335917e-03    1.0119867969e+05
    2.9998463579e-03    1.0119867969e+05
    3.0098557472e-03    1.0119871875e+05
    3.0197610613e-03    1.0119853906e+05
    3.0298333149e-03    1.0119853906e+05
    3.0397947412e-03    1.0119855469e+05
    3.0499098357e-03    1.0119846875e+05
    3.0599064194e-03    1.0119816406e+05
    3.0697842594e-03    1.0119825000e+05
    3.0797971413e-03    1.0119813281e+05
    3.0899343546e-03    1.0119806250e+05
    3.0999360606e-03    1.0119802344e+05
    3.1098003965e-03    1.0119802344e+05
    3.1197671779e-03    1.0119791406e+05
    3.1298238318e-03    1.0119792969e+05
    3.1399559230e-03    1.0119781250e+05
    3.1499201432e-03    1.0119785156e+05
    3.1599381473e-03    1.0119766406e+05
    3.1699943356e-03    1.0119760156e+05
    3.1798542477e-03    1.0119740625e+05
    3.1899369787e-03    1.0119738281e+05
    3.2000008505e-03    1.0119758594e+05
    3.2098216470e-03    1.0119764844e+05
    3.2199793495e-03    1.0119750000e+05
    3.2298401929e-03    1.0119657031e+05
    3.2399415504e-03    1.0119625781e+05
    3.2498510554e-03    1.0119649219e+05
    3.2598592807e-03    1.0119655469e+05
    3.2698584255e-03    1.0119677344e+05
    3.2800042536e-03    1.0119663281e+05
    3.2899014186e-03    1.0119658594e+05
    3.2999119721e-03    1.0119677344e+05
    3.3099863213e-03    1.0119656250e+05
    3.3199593890e-03    1.0119655469e+05
    3.3298644703e-03    1.0119671094e+05
    3.3399644308e-03    1.0119688281e+05
    3.3499302808e-03    1.0119662500e+05
    3.3598432783e-03    1.0119667969e+05
    3.3699912019e-03    1.0119671094e+05
    3.3798539080e-03    1.0119634375e+05
    3.3899245318e-03    1.0119603125e+05
    3.3998519648e-03    1.0119619531e+05
    3.4099454060e-03    1.0119628906e+05
    3.4198246431e-03    1.0119650000e+05
    3.4298482351e-03    1.0119658594e+05
    3.4399318974e-03    1.0119675781e+05
    3.4499948379e-03    1.0119683594e+05
    3.4599206410e-03    1.0119699219e+05
    3.4699738026e-03    1.0119650781e+05
    3.4798933193e-03    1.0119650781e+05
    3.4899306484e-03    1.0119696094e+05
    3.4998140763e-03    1.0119710156e+05
    3.5100067034e-03    1.0119703906e+05
    3.5198375117e-03    1.0119696094e+05
    3.5299642477e-03    1.0119703906e+05
    3.5399331246e-03    1.0119727344e+05
    3.5499813966e-03    1.0119653125e+05
    3.5598913673e-03    1.0119577344e+05
    3.5698367283e-03    1.0119577344e+05
    3.5798535682e-03    1.0119577344e+05
    3.5899006762e-03    1.0119577344e+05
    3.5998260137e-03    1.0119596094e+05
    3.6099918652e-03    1.0119616406e+05
    3.6200042814e-03    1.0119635156e+05
    3.6298369523e-03    1.0119632031e+05
    3.6399504170e-03    1.0119655469e+05
    3.6498962436e-03    1.0119647656e+05
    3.6598565057e-03    1.0119653906e+05
    3.6699110642e-03    1.0119664844e+05
    3.6799677182e-03    1.0119658594e+05
    3.6898648832e-03    1.0119657031e+05
    3.6998095457e-03    1.0119667969e+05
    3.7099933252e-03    1.0119683594e+05
    3.7198141217e-03    1.0119682031e+05
    3.7298472598e-03    1.0119660156e+05
    3.7399653811e-03    1.0119666406e+05
    3.7498716265e-03    1.0119642969e+05
    3.7598111667e-03    1.0119633594e+05
    3.7698284723e-03    1.0119638281e+05
    3.7798143458e-03    1.0119512500e+05
    3.7899101153e-03    1.0119518750e+05
    3.7999851629e-03    1.0119502344e+05
    3.8098730147e-03    1.0119453125e+05
    3.8198402617e-03    1.0119486719e+05
    3.8299998268e-03    1.0119491406e+05
    3.8398017641e-03    1.0119502344e+05
    3.8498323411e-03    1.0119524219e+05
    3.8598729298e-03    1.0119553906e+05
    3.8697901182e-03    1.0119550781e+05
    3.8798891474e-03    1.0119572656e+05
    3.8898207713e-03    1.0119572656e+05
    3.8997991942e-03    1.0119571875e+05
    3.9099943824e-03    1.0119589844e+05
    3.9197951555e-03    1.0119592969e+05
    3.9298417978e-03    1.0119577344e+05
    3.9399079978e-03    1.0119600781e+05
    3.9497925900e-03    1.0119602344e+05
    3.9599221200e-03    1.0119633594e+05
    3.9698411711e-03    1.0119527344e+05
    3.9797914214e-03    1.0119503906e+05
    3.9900033735e-03    1.0119484375e+05
    4.0000043809e-03    1.0119463281e+05
    4.0097851306e-03    1.0119486719e+05
    4.0198345669e-03    1.0119481250e+05
    4.0299110115e-03    1.0119459375e+05
    4.0400032885e-03    1.0119464844e+05
    4.0498669259e-03    1.0119471094e+05
    4.0599866770e-03    1.0119485156e+05
    4.0698666126e-03    1.0119490625e+05
    4.0800073184e-03    1.0119478125e+05
    4.0899193846e-03    1.0119412500e+05
    4.0998407640e-03    1.0119388281e+05
    4.1097658686e-03    1.0119410156e+05
    4.1199391708e-03    1.0119378906e+05
    4.1298647411e-03    1.0119389844e+05
    4.1397903115e-03    1.0119416406e+05
    4.1499636136e-03    1.0119424219e+05
    4.1598915122e-03    1.0119408594e+05
    4.1698222049e-03    1.0119438281e+05
    4.1800010949e-03    1.0119439844e+05
    4.1899308562e-03    1.0119450000e+05
    4.1998606175e-03    1.0119465625e+05
    4.2097894475e-03    1.0119491406e+05
    4.2199669406e-03    1.0119492969e+05
    4.2298971675e-03    1.0119521094e+05
    4.2398259975e-03    1.0119525000e+05
    4.2500020936e-03    1.0119525000e+05
    4.2599290609e-03    1.0119530469e+05
    4.2698555626e-03    1.0119535156e+05
    4.2797815986e-03    1.0119541406e+05
    4.2899562977e-03    1.0119547656e+05
    4.2998823337e-03    1.0119560156e+05
    4.3098069727e-03    1.0119541406e+05
    4.3199788779e-03    1.0119514844e+05
    4.3299021199e-03    1.0119528906e+05
    4.3398244306e-03    1.0119539844e+05
    4.3499944732e-03    1.0119533594e+05
    4.3599149212e-03    1.0119546094e+05
    4.3698349036e-03    1.0119552344e+05
    4.3800030835e-03    1.0119531250e+05
    4.3899216689e-03    1.0119546094e+05
    4.3998351321e-03    1.0119540625e+05
    4.4100037776e-03    1.0119536719e+05
    4.4199265540e-03    1.0119547656e+05
    4.4298437424e-03    1.0119555469e+05
    4.4400063343e-03    1.0119564844e+05
    4.4499267824e-03    1.0119571094e+05
    4.4598528184e-03    1.0119557031e+05
    4.4697783887e-03    1.0119562500e+05
    4.4799507596e-03    1.0119568750e+05
    4.4899019413e-03    1.0119574219e+05
    4.4998568483e-03    1.0119571094e+05
    4.5098154806e-03    1.0119572656e+05
    4.5197792351e-03    1.0119569531e+05
    4.5300000347e-03    1.0119577344e+05
    4.5399824157e-03    1.0119585156e+05
    4.5499904081e-03    1.0119572656e+05
    4.5597660355e-03    1.0119589844e+05
    4.5697861351e-03    1.0119593750e+05
    4.5798020437e-03    1.0119621094e+05
    4.5898407698e-03    1.0119606250e+05
    4.5999009162e-03    1.0119617969e+05
    4.6099680476e-03    1.0119627344e+05
    4.6197907068e-03    1.0119625781e+05
    4.6298843808e-03    1.0119566406e+05
    4.6399729326e-03    1.0119517969e+05
    4.6497979201e-03    1.0119515625e+05
    4.6598985791e-03    1.0119511719e+05
    4.6697682701e-03    1.0119514844e+05
    4.6799024567e-03    1.0119515625e+05
    4.6897782013e-03    1.0119508594e+05
    4.6999240294e-03    1.0119502344e+05
    4.7098249197e-03    1.0119493750e+05
    4.7199805267e-03    1.0119496875e+05
    4.7299019061e-03    1.0119475781e+05
    4.7398363240e-03    1.0119458594e+05
    4.7497935593e-03    1.0119459375e+05
    4.7600083053e-03    1.0119466406e+05
    4.7699608840e-03    1.0119465625e+05
    4.7799162567e-03    1.0119462500e+05
    4.7898795456e-03    1.0119467969e+05
    4.7998595983e-03    1.0119488281e+05
    4.8098429106e-03    1.0119486719e+05
    4.8198406585e-03    1.0119485156e+05
    4.8298509791e-03    1.0119490625e+05
    4.8398664221e-03    1.0119474219e+05
    4.8498837277e-03    1.0119399219e+05
    4.8598968424e-03    1.0119387500e+05
    4.8699197359e-03    1.0119410156e+05
    4.8799449578e-03    1.0119408594e+05
    4.8899850808e-03    1.0119413281e+05
    4.8997853883e-03    1.0119410156e+05
    4.9098581076e-03    1.0119421875e+05
    4.9199284986e-03    1.0119427344e+05
    4.9299933016e-03    1.0119433594e+05
    4.9398127012e-03    1.0119408594e+05
    4.9499091692e-03    1.0119407031e+05
    4.9600074999e-03    1.0119412500e+05
    4.9698380753e-03    1.0119408594e+05
    4.9799256958e-03    1.0119407031e+05
    4.9897632562e-03    1.0119409375e+05
    4.9998699687e-03    1.0119414844e+05
    5.0099738874e-03    1.0119425000e+05
    5.0198249519e-03    1.0119427344e+05
    5.0299367867e-03    1.0119439844e+05
    5.0397887826e-03    1.0119449219e+05
    5.0499048084e-03    1.0119428906e+05
    5.0597758964e-03    1.0119428906e+05
    5.0699184649e-03    1.0119453906e+05
    5.0798016600e-03    1.0119474219e+05
    5.0899400376e-03    1.0119497656e+05
    5.0998148508e-03    1.0119510156e+05
    5.1099550910e-03    1.0119507031e+05
    5.1198378205e-03    1.0119500781e+05
    5.1299873739e-03    1.0119518750e+05
    5.1398822106e-03    1.0119511719e+05
    5.1497775130e-03    1.0119516406e+05
    5.1599284634e-03    1.0119508594e+05
    5.1698186435e-03    1.0119510156e+05
    5.1799751818e-03    1.0119518750e+05
    5.1898807287e-03    1.0119511719e+05
    5.1997830160e-03    1.0119511719e+05
    5.2099432796e-03    1.0119517969e+05
    5.2198413759e-03    1.0119528906e+05
    5.2299993113e-03    1.0119535156e+05
    5.2398964763e-03    1.0119550781e+05
    5.2497987635e-03    1.0119566406e+05
    5.2599711344e-03    1.0119599219e+05
    5.2698841318e-03    1.0119603906e+05
    5.2797938697e-03    1.0119622656e+05
    5.2899625152e-03    1.0119628906e+05
    5.2998699248e-03    1.0119656250e+05
    5.3097764030e-03    1.0119653125e+05
    5.3199436516e-03    1.0119646875e+05
    5.3298482671e-03    1.0119646094e+05
    5.3400169127e-03    1.0119642969e+05
    5.3499299102e-03    1.0119628906e+05
    5.3598438390e-03    1.0119641406e+05
    5.3700162098e-03    1.0119622656e+05
    5.3799324669e-03    1.0119635156e+05
    5.3898501210e-03    1.0119618750e+05
    5.3997654468e-03    1.0119508594e+05
    5.4099401459e-03    1.0119491406e+05
    5.4198536091e-03    1.0119510156e+05
    5.4297666065e-03    1.0119489844e+05
    5.4399403743e-03    1.0119483594e+05
    5.4498547688e-03    1.0119491406e+05
    5.4597691633e-03    1.0119491406e+05
    5.4699429311e-03    1.0119507031e+05
    5.4798545316e-03    1.0119516406e+05
    5.4897647351e-03    1.0119517969e+05
    5.4999357089e-03    1.0119503125e+05
    5.5098533630e-03    1.0119487500e+05
    5.5197747424e-03    1.0119505469e+05
    5.5299564265e-03    1.0119494531e+05
    5.5398764089e-03    1.0119446094e+05
    5.5497954600e-03    1.0119411719e+05
    5.5599752814e-03    1.0119388281e+05
    5.5698938668e-03    1.0119374219e+05
    5.5798124522e-03    1.0119380469e+05
    5.5899913423e-03    1.0119374219e+05
    5.5999089964e-03    1.0119388281e+05
    5.6098261848e-03    1.0119410156e+05
    5.6200078689e-03    1.0119410156e+05
    5.6299278513e-03    1.0119430469e+05
    5.6398473680e-03    1.0119409375e+05
    5.6497659534e-03    1.0119416406e+05
    5.6599476375e-03    1.0119416406e+05
    5.6698694825e-03    1.0119432031e+05
    5.6797899306e-03    1.0119435156e+05
    5.6899706833e-03    1.0119413281e+05
    5.6998902000e-03    1.0119412500e+05
    5.7098153047e-03    1.0119412500e+05
    5.7200030424e-03    1.0119412500e+05
    5.7299281470e-03    1.0119411719e+05
    5.7398527861e-03    1.0119408594e+05
    5.7497755624e-03    1.0119412500e+05
    5.7599591091e-03    1.0119434375e+05
    5.7698818855e-03    1.0119455469e+05
    5.7798079215e-03    1.0119453125e+05
    5.7899975218e-03    1.0119464844e+05
    5.7999244891e-03    1.0119478125e+05
    5.8098509908e-03    1.0119480469e+05
    5.8197774924e-03    1.0119472656e+05
    5.8299703524e-03    1.0119490625e+05
    5.8399047703e-03    1.0119492969e+05
    5.8498373255e-03    1.0119497656e+05
    5.8597680181e-03    1.0119514844e+05
    5.8699594811e-03    1.0119497656e+05
    5.8798878454e-03    1.0119428906e+05
    5.8898208663e-03    1.0119440625e+05
    5.9000253677e-03    1.0119414844e+05
    5.9099667706e-03    1.0119405469e+05
    5.9199067764e-03    1.0119396094e+05
    5.9298458509e-03    1.0119400000e+05
    5.9397872537e-03    1.0119406250e+05
    5.9499973431e-03    1.0119410156e+05
    5.9599443339e-03    1.0119412500e+05
    5.9698913246e-03    1.0119418750e+05
    5.9798378497e-03    1.0119410156e+05
    5.9897839092e-03    1.0119405469e+05
    5.9999912046e-03    1.0119410156e+05
    6.0099354014e-03    1.0119410156e+05
    6.0198875144e-03    1.0119414844e+05
    6.0298428871e-03    1.0119441406e+05
    6.0397959314e-03    1.0119437500e+05
    6.0500102118e-03    1.0119453906e+05
    6.0599627905e-03    1.0119431250e+05
    6.0699181631e-03    1.0119352344e+05
    6.0798735358e-03    1.0119346094e+05
    6.0898289084e-03    1.0119321875e+05
    6.0997838154e-03    1.0119335156e+05
    6.1099999584e-03    1.0119338281e+05
    6.1199534684e-03    1.0119331250e+05
    6.1299060471e-03    1.0119356250e+05
    6.1398637481e-03    1.0119358594e+05
    6.1498275027e-03    1.0119363281e+05
    6.1597893946e-03    1.0119356250e+05
    6.1700125225e-03    1.0119358594e+05
    6.1799739487e-03    1.0119358594e+05
    6.1899344437e-03    1.0119357031e+05
    6.1998954043e-03    1.0119378906e+05
    6.2098586932e-03    1.0119378125e+05
    6.2198219821e-03    1.0119387500e+05
    6.2297834083e-03    1.0119391406e+05
    6.2400065362e-03    1.0119350781e+05
    6.2499651685e-03    1.0119353906e+05
    6.2599298544e-03    1.0119360156e+05
    6.2699103728e-03    1.0119359375e+05
    6.2798936851e-03    1.0119377344e+05
    6.2898742035e-03    1.0119375781e+05
    6.2998533249e-03    1.0119378125e+05
    6.3098319806e-03    1.0119382031e+05
    6.3198097050e-03    1.0119378906e+05
    6.3297902234e-03    1.0119383594e+05
    6.3397735357e-03    1.0119385156e+05
    6.3500194810e-03    1.0119378906e+05
    6.3600018620e-03    1.0119356250e+05
    6.3699828461e-03    1.0119357031e+05
    6.3799670897e-03    1.0119360156e+05
    6.3899559900e-03    1.0119358594e+05
    6.3999453560e-03    1.0119346094e+05
    6.4099328592e-03    1.0119335156e+05
    6.4199194312e-03    1.0119327344e+05
    6.4299060032e-03    1.0119308594e+05
    6.4398907125e-03    1.0119325781e+05
    6.4498810098e-03    1.0119327344e+05
    6.4598843455e-03    1.0119334375e+05
    6.4698895440e-03    1.0119353125e+05
    6.4798928797e-03    1.0119371094e+05
    6.4898948185e-03    1.0119384375e+05
    6.4998962916e-03    1.0119380469e+05
    6.5098968334e-03    1.0119375781e+05
    6.5198983066e-03    1.0119377344e+05
    6.5299002454e-03    1.0119380469e+05
    6.5399054438e-03    1.0119378906e+05
    6.5499106422e-03    1.0119384375e+05
    6.5599144436e-03    1.0119385156e+05
    6.5699173138e-03    1.0119403906e+05
    6.5799239092e-03    1.0119403906e+05
    6.5899374895e-03    1.0119390625e+05
    6.5999515355e-03    1.0119408594e+05
    6.6099632531e-03    1.0119410156e+05
    6.6199745052e-03    1.0119409375e+05
    6.6299857572e-03    1.0119403906e+05
    6.6399970092e-03    1.0119399219e+05
    6.6500101238e-03    1.0119353906e+05
    6.6600251012e-03    1.0119359375e+05
    6.6697760485e-03    1.0119372656e+05
    6.6797891632e-03    1.0119369531e+05
    6.6898022778e-03    1.0119346875e+05
    6.6998139955e-03    1.0119346094e+05
    6.7098299041e-03    1.0119321875e+05
    6.7198551260e-03    1.0119311719e+05
    6.7298798822e-03    1.0119294531e+05
    6.7399032414e-03    1.0119306250e+05
    6.7499256693e-03    1.0119297656e+05
    6.7599476315e-03    1.0119285156e+05
    6.7699681967e-03    1.0119280469e+05
    6.7799929529e-03    1.0119260156e+05
    6.7900251597e-03    1.0119255469e+05
    6.7997910082e-03    1.0119278906e+05
    6.8098180927e-03    1.0119277344e+05
    6.8198442459e-03    1.0119277344e+05
    6.8298713304e-03    1.0119266406e+05
    6.8399058655e-03    1.0119275781e+05
    6.8499520421e-03    1.0119275000e+05
    6.8600010127e-03    1.0119296875e+05
    6.8697826937e-03    1.0119296094e+05
    6.8798279390e-03    1.0119293750e+05
    6.8898722529e-03    1.0119296875e+05
    6.8999170326e-03    1.0119293750e+05
    6.9099743851e-03    1.0119297656e+05
    6.9197770208e-03    1.0119302344e+05
    6.9298427552e-03    1.0119305469e+05
    6.9399070926e-03    1.0119303906e+05
    6.9499704987e-03    1.0119331250e+05
    6.9600334391e-03    1.0119321094e+05
    6.9698318839e-03    1.0119321875e+05
    6.9798948243e-03    1.0119308594e+05
    6.9899600931e-03    1.0119333594e+05
    7.0000244305e-03    1.0119356250e+05
    7.0098228753e-03    1.0119355469e+05
    7.0198844187e-03    1.0119383594e+05
    7.0299454965e-03    1.0119392969e+05
    7.0400126278e-03    1.0119422656e+05
    7.0498283021e-03    1.0119412500e+05
    7.0599121973e-03    1.0119431250e+05
    7.0699928328e-03    1.0119437500e+05
    7.0798080415e-03    1.0119428906e+05
    7.0898877457e-03    1.0119412500e+05
    7.0999679156e-03    1.0119421094e+05
    7.1097896434e-03    1.0119409375e+05
    7.1198847145e-03    1.0119409375e+05
    7.1299811825e-03    1.0119402344e+05
    7.1398094296e-03    1.0119412500e+05
    7.1499012411e-03    1.0119421094e+05
    7.1599921212e-03    1.0119322656e+05
    7.1698175743e-03    1.0119253906e+05
    7.1799168363e-03    1.0119231250e+05
    7.1900314651e-03    1.0119222656e+05
    7.1998820640e-03    1.0119243750e+05
    7.2099966928e-03    1.0119234375e+05
    7.2198440321e-03    1.0119221094e+05
    7.2299567983e-03    1.0119206250e+05
    7.2398060001e-03    1.0119200000e+05
    7.2499308735e-03    1.0119196094e+05
    7.2597912513e-03    1.0119194531e+05
    7.2699151933e-03    1.0119216406e+05
    7.2797709145e-03    1.0119221094e+05
    7.2898925282e-03    1.0119200000e+05
    7.3000141419e-03    1.0119171875e+05
    7.3098773137e-03    1.0119160156e+05
    7.3200250044e-03    1.0119165625e+05
    7.3299095966e-03    1.0119172656e+05
    7.3397913948e-03    1.0119174219e+05
    7.3499381542e-03    1.0119165625e+05
    7.3598162271e-03    1.0119081250e+05
    7.3699606583e-03    1.0119078906e+05
    7.3798410594e-03    1.0119063281e+05
    7.3900022544e-03    1.0119055469e+05
    7.3999064043e-03    1.0119050781e+05
    7.4098100886e-03    1.0119041406e+05
    7.4199805968e-03    1.0118909375e+05
    7.4298828840e-03    1.0118900781e+05
    7.4397842400e-03    1.0118888281e+05
    7.4499528855e-03    1.0118891406e+05
    7.4598528445e-03    1.0118871875e+05
    7.4700196274e-03    1.0118859375e+05
    7.4799181893e-03    1.0118859375e+05
    7.4898158200e-03    1.0118855469e+05
    7.4999802746e-03    1.0118858594e+05
    7.5098788366e-03    1.0118846094e+05
    7.5197843835e-03    1.0118839844e+05
    7.5299683958e-03    1.0118830469e+05
    7.5398879126e-03    1.0118825781e+05
    7.5498055667e-03    1.0118846875e+05
    7.5599886477e-03    1.0118850781e+05
    7.5699030422e-03    1.0118842969e+05
    7.5798169710e-03    1.0118847656e+05
    7.5899986550e-03    1.0118846094e+05
    7.5999177061e-03    1.0118843750e+05
    7.6098456047e-03    1.0118846875e+05
    7.6197749004e-03    1.0118855469e+05
    7.6299710199e-03    1.0118859375e+05
    7.6398975216e-03    1.0118865625e+05
    7.6498235576e-03    1.0118891406e+05
    7.6600229368e-03    1.0118894531e+05
    7.6699620113e-03    1.0118899219e+05
    7.6799020171e-03    1.0118897656e+05
    7.6898401603e-03    1.0118918750e+05
    7.6997764409e-03    1.0118930469e+05
    7.7099800110e-03    1.0118949219e+05
    7.7199148946e-03    1.0118972656e+05
    7.7298525721e-03    1.0118972656e+05
    7.7398000285e-03    1.0118982031e+05
    7.7500222251e-03    1.0118978906e+05
    7.7599743381e-03    1.0118985156e+05
    7.7699250542e-03    1.0118996094e+05
    7.7798743732e-03    1.0119014844e+05
    7.7898232266e-03    1.0119016406e+05
    7.8000407666e-03    1.0119014844e+05
    7.8099900857e-03    1.0119028125e+05
    7.8199403360e-03    1.0119024219e+05
    7.8298933804e-03    1.0119014844e+05
    7.8398454934e-03    1.0119019531e+05
    7.8497976065e-03    1.0119015625e+05
    7.8600170091e-03    1.0119010156e+05
    7.8699672595e-03    1.0119033594e+05
    7.8799212351e-03    1.0119053906e+05
    7.8898807988e-03    1.0119053125e+05
    7.8998431563e-03    1.0119064844e+05
    7.9098045826e-03    1.0119063281e+05
    7.9200332984e-03    1.0119066406e+05
    7.9299919307e-03    1.0119072656e+05
    7.9399496317e-03    1.0119080469e+05
    7.9499082640e-03    1.0119077344e+05
    7.9598696902e-03    1.0119089844e+05
    7.9698367044e-03    1.0119089844e+05
    7.9798027873e-03    1.0119086719e+05
    7.9897679389e-03    1.0119105469e+05
    8.0000003800e-03    1.0119089844e+05
    8.0099636689e-03    1.0119097656e+05
    8.0199288204e-03    1.0119102344e+05
    8.0299042165e-03    1.0119112500e+05
    8.0398861319e-03    1.0119121094e+05
    8.0498671159e-03    1.0119119531e+05
    8.0598471686e-03    1.0119114844e+05
    8.0698253587e-03    1.0119125000e+05
    8.0798035488e-03    1.0119102344e+05
    8.0897808075e-03    1.0119060156e+05
    8.0997617915e-03    1.0119063281e+05
    8.1100147218e-03    1.0119028906e+05
    8.1199975684e-03    1.0119008594e+05
    8.1299794838e-03    1.0119015625e+05
    8.1399613991e-03    1.0119018750e+05
    8.1499423832e-03    1.0119018750e+05
    8.1599252298e-03    1.0118990625e+05
    8.1699118018e-03    1.0119007031e+05
    8.1798974425e-03    1.0118990625e+05
    8.1898821518e-03    1.0118987500e+05
    8.1998649985e-03    1.0118992969e+05
    8.2098469138e-03    1.0118989844e+05
    8.2198278978e-03    1.0119007031e+05
    8.2298116758e-03    1.0119013281e+05
    8.2398056984e-03    1.0119022656e+05
    8.2498127595e-03    1.0119009375e+05
    8.2598226145e-03    1.0119022656e+05
    8.2698306069e-03    1.0119008594e+05
    8.2798367366e-03    1.0119000000e+05
    8.2898410037e-03    1.0119017969e+05
    8.2998452708e-03    1.0119012500e+05
    8.3098495379e-03    1.0118878906e+05
    8.3198538050e-03    1.0118871875e+05
    8.3298599347e-03    1.0118871875e+05
    8.3398697898e-03    1.0118888281e+05
    8.3498796448e-03    1.0118900000e+05
    8.3598885685e-03    1.0118896094e+05
    8.3698965609e-03    1.0118903125e+05
    8.3799045533e-03    1.0118903906e+05
    8.3899116144e-03    1.0118897656e+05
    8.3999242634e-03    1.0118900000e+05
    8.4099443629e-03    1.0118814844e+05
    8.4199653938e-03    1.0118817969e+05
    8.4299845621e-03    1.0118771875e+05
    8.4400009364e-03    1.0118789844e+05
    8.4497462958e-03    1.0118796875e+05
    8.4597608075e-03    1.0118812500e+05
    8.4697781131e-03    1.0118811719e+05
    8.4798010066e-03    1.0118819531e+05
    8.4898285568e-03    1.0118813281e+05
    8.4998561069e-03    1.0118811719e+05
    8.5098817945e-03    1.0118821094e+05
    8.5199065506e-03    1.0118821094e+05
    8.5299313068e-03    1.0118842969e+05
    8.5399607196e-03    1.0118843750e+05
    8.5499966517e-03    1.0118852344e+05
    8.5597606376e-03    1.0118875781e+05
    8.5697937757e-03    1.0118872656e+05
    8.5798250511e-03    1.0118872656e+05
    8.5898544639e-03    1.0118871875e+05
    8.5998829454e-03    1.0118783594e+05
    8.6099114269e-03    1.0118756250e+05
    8.6199445650e-03    1.0118761719e+05
    8.6299898103e-03    1.0118746094e+05
    8.6397705600e-03    1.0118721094e+05
    8.6498223245e-03    1.0118740625e+05
    8.6598722264e-03    1.0118753906e+05
    8.6699211970e-03    1.0118746094e+05
    8.6799692363e-03    1.0118740625e+05
    8.6897453293e-03    1.0118736719e+05
    8.6997989565e-03    1.0118744531e+05
    8.7098609656e-03    1.0118766406e+05
    8.7199229747e-03    1.0118760156e+05
    8.7299840525e-03    1.0118664844e+05
    8.7397713214e-03    1.0118655469e+05
    8.7498296052e-03    1.0118655469e+05
    8.7598860264e-03    1.0118682031e+05
    8.7699424475e-03    1.0118683594e+05
    8.7799988687e-03    1.0118683594e+05
    8.7897852063e-03    1.0118685156e+05
    8.7998425588e-03    1.0118702344e+05
    8.8098989800e-03    1.0118703906e+05
    8.8199554011e-03    1.0118700781e+05
    8.8297389448e-03    1.0118728125e+05
    8.8397935033e-03    1.0118722656e+05
    8.8498480618e-03    1.0118713281e+05
    8.8599035516e-03    1.0118733594e+05
    8.8699581102e-03    1.0118718750e+05
    8.8797407225e-03    1.0118713281e+05
    8.8897962123e-03    1.0118724219e+05
    8.8998517022e-03    1.0118712500e+05
    8.9099062607e-03    1.0118713281e+05
    8.9199589565e-03    1.0118716406e+05
    8.9297397062e-03    1.0118733594e+05
    8.9397970587e-03    1.0118731250e+05
    8.9498627931e-03    1.0118739844e+05
    8.9599350467e-03    1.0118744531e+05
    8.9697344229e-03    1.0118757031e+05
    8.9798048139e-03    1.0118761719e+05
    8.9898733422e-03    1.0118771094e+05
    8.9999409392e-03    1.0118789844e+05
    9.0097347274e-03    1.0118786719e+05
    9.0198004618e-03    1.0118796094e+05
    9.0298699215e-03    1.0118791406e+05
    9.0399524197e-03    1.0118797656e+05
    9.0497704223e-03    1.0118797656e+05
    9.0598603711e-03    1.0118791406e+05
    9.0699484572e-03    1.0118807031e+05
    9.0797627345e-03    1.0118802344e+05
    9.0898470953e-03    1.0118681250e+05
    9.0999295935e-03    1.0118657031e+05
    9.1097401455e-03    1.0118655469e+05
    9.1198263690e-03    1.0118660156e+05
    9.1299312189e-03    1.0118653906e+05
    9.1397752985e-03    1.0118660156e+05
    9.1498913243e-03    1.0118683594e+05
    9.1597326100e-03    1.0118687500e+05
    9.1698458418e-03    1.0118684375e+05
    9.1799562797e-03    1.0118700781e+05
    9.1897919774e-03    1.0118711719e+05
    9.1999005526e-03    1.0118737500e+05
    9.2097371817e-03    1.0118750000e+05
    9.2198560014e-03    1.0118767969e+05
    9.2299850658e-03    1.0118768750e+05
    9.2398412526e-03    1.0118785156e+05
    9.2499703169e-03    1.0118793750e+05
    9.2598255724e-03    1.0118819531e+05
    9.2699546367e-03    1.0118832031e+05
    9.2798089609e-03    1.0118847656e+05
    9.2899361625e-03    1.0118850000e+05
    9.2997895554e-03    1.0118866406e+05
    9.3099195510e-03    1.0118875000e+05
    9.3197729439e-03    1.0118871094e+05
    9.3299001455e-03    1.0118896875e+05
    9.3397526070e-03    1.0118913281e+05
    9.3498760834e-03    1.0118900781e+05
    9.3597248197e-03    1.0118903906e+05
    9.3698464334e-03    1.0118900781e+05
    9.3799708411e-03    1.0118884375e+05
    9.3898316845e-03    1.0118747656e+05
    9.3997046351e-03    1.0118747656e+05
    9.4098560512e-03    1.0118781250e+05
    9.4197299331e-03    1.0118816406e+05
    9.4298766926e-03    1.0118802344e+05
    9.4397487119e-03    1.0118815625e+05
    9.4498945400e-03    1.0118810156e+05
    9.4597637653e-03    1.0118816406e+05
    9.4699151814e-03    1.0118821094e+05
    9.4798086211e-03    1.0118835156e+05
    9.4897402450e-03    1.0118839844e+05
    9.4999577850e-03    1.0118838281e+05
    9.5098987222e-03    1.0118835156e+05
    9.5198350027e-03    1.0118846875e+05
    9.5297787338e-03    1.0118842969e+05
    9.5397327095e-03    1.0118840625e+05
    9.5497062430e-03    1.0118830469e+05
    9.5597626641e-03    1.0118814844e+05
    9.5698377118e-03    1.0118821094e+05
    9.5799621195e-03    1.0118813281e+05
    9.5898304135e-03    1.0118814844e+05
    9.5996940508e-03    1.0118818750e+05
    9.6098380163e-03    1.0118816406e+05
    9.6197249368e-03    1.0118835156e+05
    9.6299434081e-03    1.0118839844e+05
    9.6399001777e-03    1.0118822656e+05
    9.6499593928e-03    1.0118828906e+05
    9.6597820520e-03    1.0118834375e+05
    9.6699222922e-03    1.0118821094e+05
    9.6798287705e-03    1.0118803906e+05
    9.6897343174e-03    1.0118790625e+05
    9.6999285743e-03    1.0118786719e+05
    9.7098276019e-03    1.0118789844e+05
    9.7197247669e-03    1.0118806250e+05
    9.7299292684e-03    1.0118816406e+05
    9.7398487851e-03    1.0118809375e+05
    9.7498521209e-03    1.0118825781e+05
    9.7598675638e-03    1.0118822656e+05
    9.7699537873e-03    1.0118833594e+05
    9.7797568887e-03    1.0118838281e+05
    9.7898533568e-03    1.0118840625e+05
    9.7999488935e-03    1.0118852344e+05
    9.8097436130e-03    1.0118841406e+05
    9.8198400810e-03    1.0118842969e+05
    9.8299514502e-03    1.0118843750e+05
    9.8398141563e-03    1.0118828906e+05
    9.8497131839e-03    1.0118828906e+05
    9.8596634343e-03    1.0118819531e+05
    9.8699582741e-03    1.0118824219e+05
    9.8799429834e-03    1.0118835156e+05
    9.8899332806e-03    1.0118831250e+05
    9.8999198526e-03    1.0118814844e+05
    9.9099082872e-03    1.0118816406e+05
    9.9197411910e-03    1.0118822656e+05
    9.9298590794e-03    1.0118816406e+05
    9.9399490282e-03    1.0118821094e+05
    9.9499402568e-03    1.0118836719e+05
    9.9597573280e-03    1.0118847656e+05
    9.9697187543e-03    1.0118844531e+05
    9.9798459560e-03    1.0118846094e+05
    9.9898092449e-03    1.0118864844e+05
    9.9996021017e-03    1.0118868750e+05
    1.0009942576e-02    1.0118847656e+05
    1.0019698180e-02    1.0118846094e+05
    1.0029592551e-02    1.0118846875e+05
    1.0039619170e-02    1.0118842969e+05
    1.0049781762e-02    1.0118721094e+05
    1.0059686378e-02    1.0118715625e+05
    1.0069725104e-02    1.0118711719e+05
    1.0079898871e-02    1.0118710156e+05
    1.0089789517e-02    1.0118700000e+05
    1.0099800304e-02    1.0118697656e+05
    1.0109932162e-02    1.0118703906e+05
    1.0119748302e-02    1.0118710156e+05
    1.0129668750e-02    1.0118621875e+05
    1.0139688849e-02    1.0118592969e+05
    1.0149816051e-02    1.0118589844e+05
    1.0159604251e-02    1.0118577344e+05
    1.0169942863e-02    1.0118582031e+05
    1.0179927573e-02    1.0118581250e+05
    1.0189525783e-02    1.0118588281e+05
    1.0199624114e-02    1.0118585156e+05
    1.0209752247e-02    1.0118588281e+05
    1.0219911113e-02    1.0118593750e+05
    1.0229651816e-02    1.0118600000e+05
    1.0239913128e-02    1.0118602344e+05
    1.0249742307e-02    1.0118619531e+05
    1.0259618983e-02    1.0118614844e+05
    1.0269552469e-02    1.0118597656e+05
    1.0279511102e-02    1.0118600000e+05
    1.0289523751e-02    1.0118591406e+05
    1.0299609043e-02    1.0118585156e+05
    1.0309724137e-02    1.0118563281e+05
    1.0319870897e-02    1.0118560156e+05
    1.0329595767e-02    1.0118546875e+05
    1.0339849629e-02    1.0118553906e+05
    1.0349646211e-02    1.0118552344e+05
    1.0359519161e-02    1.0118517969e+05
    1.0369884782e-02    1.0118522656e+05
    1.0379809886e-02    1.0118538281e+05
    1.0389802046e-02    1.0118518750e+05
    1.0399809107e-02    1.0118521875e+05
    1.0409852490e-02    1.0118525000e+05
    1.0419888422e-02    1.0118541406e+05
    1.0429542512e-02    1.0118552344e+05
    1.0439775884e-02    1.0118555469e+05
    1.0449930094e-02    1.0118557031e+05
    1.0459639132e-02    1.0118564844e+05
    1.0469432920e-02    1.0118562500e+05
    1.0479789227e-02    1.0118583594e+05
    1.0489588603e-02    1.0118577344e+05
    1.0499474593e-02    1.0118546094e+05
    1.0509931482e-02    1.0118539844e+05
    1.0519874282e-02    1.0118516406e+05
    1.0529855266e-02    1.0118428906e+05
    1.0539824143e-02    1.0118412500e+05
    1.0549786501e-02    1.0118400000e+05
    1.0559828952e-02    1.0118391406e+05
    1.0569895618e-02    1.0118399219e+05
    1.0579452850e-02    1.0118418750e+05
    1.0589579120e-02    1.0118424219e+05
    1.0599754751e-02    1.0118421094e+05
    1.0609377176e-02    1.0118428906e+05
    1.0619623587e-02    1.0118442969e+05
    1.0629864410e-02    1.0118437500e+05
    1.0639579967e-02    1.0118442969e+05
    1.0649892502e-02    1.0118447656e+05
    1.0659631342e-02    1.0118443750e+05
    1.0669430718e-02    1.0118433594e+05
    1.0679788888e-02    1.0118434375e+05
    1.0689602233e-02    1.0118433594e+05
    1.0699926876e-02    1.0118430469e+05
    1.0709630325e-02    1.0118439844e+05
    1.0719689541e-02    1.0118453906e+05
    1.0729444213e-02    1.0118456250e+05
    1.0739843361e-02    1.0118441406e+05
    1.0749829933e-02    1.0118433594e+05
    1.0759861208e-02    1.0118421094e+05
    1.0769899003e-02    1.0118421094e+05
    1.0779902339e-02    1.0118430469e+05
    1.0789828375e-02    1.0118436719e+05
    1.0799632408e-02    1.0118444531e+05
    1.0809616186e-02    1.0118446094e+05
    1.0819670744e-02    1.0118443750e+05
    1.0829677805e-02    1.0118450000e+05
    1.0839783587e-02    1.0118444531e+05
    1.0849771090e-02    1.0118458594e+05
    1.0859834962e-02    1.0118446094e+05
    1.0869909078e-02    1.0118442969e+05
    1.0879880749e-02    1.0118428906e+05
    1.0889875703e-02    1.0118413281e+05
    1.0899907909e-02    1.0118389844e+05
    1.0909891687e-02    1.0118371094e+05
    1.0919833556e-02    1.0118353906e+05
    1.0929903947e-02    1.0118357031e+05
    1.0939764790e-02    1.0118330469e+05
    1.0949867778e-02    1.0118339844e+05
    1.0959731415e-02    1.0118328125e+05
    1.0969884694e-02    1.0118303906e+05
    1.0979902931e-02    1.0118302344e+05
    1.0989901610e-02    1.0118227344e+05
    1.0999709368e-02    1.0118253906e+05
    1.1009736918e-02    1.0118255469e+05
    1.1019744910e-02    1.0118253906e+05
    1.1029708199e-02    1.0118266406e+05
    1.1039819568e-02    1.0118258594e+05
    1.1049831286e-02    1.0118239844e+05
    1.1059708893e-02    1.0118247656e+05
    1.1069910601e-02    1.0118244531e+05
    1.1079732329e-02    1.0118249219e+05
    1.1089839041e-02    1.0118268750e+05
    1.1099791154e-02    1.0118291406e+05
    1.1109786108e-02    1.0118285156e+05
    1.1119821109e-02    1.0118309375e+05
    1.1129903607e-02    1.0118292969e+05
    1.1139773764e-02    1.0118308594e+05
    1.1149696074e-02    1.0118310156e+05
    1.1159866117e-02    1.0118335156e+05
    1.1169851758e-02    1.0118328906e+05
    1.1179853231e-02    1.0118336719e+05
    1.1189873330e-02    1.0118353906e+05
    1.1199680157e-02    1.0118325000e+05
    1.1209730990e-02    1.0118310156e+05
    1.1219841428e-02    1.0118277344e+05
    1.1229687370e-02    1.0118239844e+05
    1.1239823885e-02    1.0118258594e+05
    1.1249721050e-02    1.0118235156e+05
    1.1259865016e-02    1.0118246094e+05
    1.1269816197e-02    1.0118253906e+05
    1.1279758066e-02    1.0118249219e+05
    1.1289735325e-02    1.0118242969e+05
    1.1299725622e-02    1.0118225000e+05
    1.1309747584e-02    1.0118215625e+05
    1.1319790967e-02    1.0118222656e+05
    1.1329832487e-02    1.0118225000e+05
    1.1339901946e-02    1.0118212500e+05
    1.1349726468e-02    1.0118221094e+05
    1.1359813623e-02    1.0118216406e+05
    1.1369663291e-02    1.0118227344e+05
    1.1379790492e-02    1.0118238281e+05
    1.1389677413e-02    1.0118228125e+05
    1.1399825104e-02    1.0118250000e+05
    1.1409738101e-02    1.0118246094e+05
    1.1419665068e-02    1.0118227344e+05
    1.1429848149e-02    1.0118246094e+05
    1.1439796537e-02    1.0118261719e+05
    1.1449768208e-02    1.0118255469e+05
    1.1459745467e-02    1.0118256250e+05
    1.1469736695e-02    1.0118253906e+05
    1.1479751207e-02    1.0118275781e+05
    1.1489785276e-02    1.0118277344e+05
    1.1499816552e-02    1.0118262500e+05
    1.1509859934e-02    1.0118282031e+05
    1.1519666761e-02    1.0118282031e+05
    1.1529733427e-02    1.0118283594e+05
    1.1539802887e-02    1.0118278125e+05
    1.1549891904e-02    1.0118266406e+05
    1.1559740640e-02    1.0118259375e+05
    1.1569842696e-02    1.0118267969e+05
    1.1579693295e-02    1.0118272656e+05
    1.1589835398e-02    1.0118272656e+05
    1.1599720456e-02    1.0118216406e+05
    1.1609862559e-02    1.0118202344e+05
    1.1619756930e-02    1.0118194531e+05
    1.1629675515e-02    1.0118191406e+05
    1.1639841832e-02    1.0118189844e+05
    1.1649748310e-02    1.0118196094e+05
    1.1659692042e-02    1.0118196094e+05
    1.1669646017e-02    1.0118199219e+05
    1.1679846793e-02    1.0118197656e+05
    1.1689807288e-02    1.0118210156e+05
    1.1699792929e-02    1.0118222656e+05
    1.1709772050e-02    1.0118225000e+05
    1.1719751172e-02    1.0118234375e+05
    1.1729748920e-02    1.0118228125e+05
    1.1739762500e-02    1.0118228125e+05
    1.1749768630e-02    1.0118247656e+05
    1.1759777553e-02    1.0118258594e+05
    1.1769811623e-02    1.0118277344e+05
    1.1779846624e-02    1.0118267969e+05
    1.1789877899e-02    1.0118283594e+05
    1.1799664237e-02    1.0118296094e+05
    1.1809734628e-02    1.0118280469e+05
    1.1819804087e-02    1.0118288281e+05
    1.1829880998e-02    1.0118280469e+05
    1.1839709245e-02    1.0118283594e+05
    1.1849818751e-02    1.0118277344e+05
    1.1859660968e-02    1.0118272656e+05
    1.1869772337e-02    1.0118272656e+05
    1.1879629456e-02    1.0118282031e+05
    1.1889756657e-02    1.0118282031e+05
    1.1899616569e-02    1.0118271875e+05
    1.1909757741e-02    1.0118274219e+05
    1.1919643730e-02    1.0118257031e+05
    1.1929805391e-02    1.0118247656e+05
    1.1939710006e-02    1.0118228125e+05
    1.1949619278e-02    1.0118253125e+05
    1.1959796771e-02    1.0118228125e+05
    1.1969705112e-02    1.0118209375e+05
    1.1979612522e-02    1.0118212500e+05
    1.1989787221e-02    1.0118227344e+05
    1.1999691837e-02    1.0118228906e+05
    1.2009862810e-02    1.0118227344e+05
    1.2019764632e-02    1.0118233594e+05
    1.2029669248e-02    1.0118253125e+05
    1.2039842084e-02    1.0118249219e+05
    1.2049748562e-02    1.0118252344e+05
    1.2059661560e-02    1.0118246094e+05
    1.2069846503e-02    1.0118247656e+05
    1.2079763226e-02    1.0118246094e+05
    1.2089683674e-02    1.0118253906e+05
    1.2099605985e-02    1.0118253906e+05
    1.2109798379e-02    1.0118272656e+05
    1.2119722553e-02    1.0118268750e+05
    1.2129644863e-02    1.0118268750e+05
    1.2139835395e-02    1.0118272656e+05
    1.2149757706e-02    1.0118269531e+05
    1.2159680016e-02    1.0118278906e+05
    1.2169868685e-02    1.0118285156e+05
    1.2179790065e-02    1.0118307031e+05
    1.2189712375e-02    1.0118319531e+05
    1.2199633755e-02    1.0118360156e+05
    1.2209824286e-02    1.0118369531e+05
    1.2219748460e-02    1.0118366406e+05
    1.2229673564e-02    1.0118387500e+05
    1.2239867821e-02    1.0118391406e+05
    1.2249794789e-02    1.0118396094e+05
    1.2259721756e-02    1.0118415625e+05
    1.2269647792e-02    1.0118427344e+05
    1.2279842980e-02    1.0118443750e+05
    1.2289769016e-02    1.0118440625e+05
    1.2299695984e-02    1.0118447656e+05
    1.2309625745e-02    1.0118466406e+05
    1.2319826521e-02    1.0118477344e+05
    1.2329765595e-02    1.0118485156e+05
    1.2339709327e-02    1.0118505469e+05
    1.2349653058e-02    1.0118499219e+05
    1.2359595858e-02    1.0118522656e+05
    1.2369806878e-02    1.0118525000e+05
    1.2379749678e-02    1.0118544531e+05
    1.2389691547e-02    1.0118552344e+05
    1.2399632484e-02    1.0118557031e+05
    1.2409842573e-02    1.0118552344e+05
    1.2419788167e-02    1.0118556250e+05
    1.2429741211e-02    1.0118560156e+05
    1.2439703569e-02    1.0118582031e+05
    1.2449668720e-02    1.0118571094e+05
    1.2459632941e-02    1.0118581250e+05
    1.2469594367e-02    1.0118596094e+05
    1.2479824945e-02    1.0118602344e+05
    1.2489785440e-02    1.0118610156e+05
    1.2499744073e-02    1.0118628906e+05
    1.2509706430e-02    1.0118628125e+05
    1.2519675307e-02    1.0118631250e+05
    1.2529654428e-02    1.0118641406e+05
    1.2539633550e-02    1.0118658594e+05
    1.2549611740e-02    1.0118662500e+05
    1.2559588067e-02    1.0118675781e+05
    1.2569832616e-02    1.0118678125e+05
    1.2579806149e-02    1.0118678125e+05
    1.2589779682e-02    1.0118678906e+05
    1.2599759735e-02    1.0118657031e+05
    1.2609749101e-02    1.0118650781e+05
    1.2619742192e-02    1.0118653906e+05
    1.2629735284e-02    1.0118653906e+05
    1.2639727443e-02    1.0118656250e+05
    1.2649719603e-02    1.0118669531e+05
    1.2659713626e-02    1.0118678906e+05
    1.2669713236e-02    1.0118672656e+05
    1.2679711916e-02    1.0118678125e+05
    1.2689708732e-02    1.0118674219e+05
    1.2699704617e-02    1.0118675781e+05
    1.2709699571e-02    1.0118675781e+05
    1.2719693594e-02    1.0118655469e+05
    1.2729690410e-02    1.0118681250e+05
    1.2739692815e-02    1.0118677344e+05
    1.2749700807e-02    1.0118678906e+05
    1.2759710662e-02    1.0118666406e+05
    1.2769720517e-02    1.0118650781e+05
    1.2779727578e-02    1.0118578906e+05
    1.2789733708e-02    1.0118549219e+05
    1.2799738906e-02    1.0118547656e+05
    1.2809741311e-02    1.0118547656e+05
    1.2819748372e-02    1.0118538281e+05
    1.2829770334e-02    1.0118536719e+05
    1.2839803472e-02    1.0118533594e+05
    1.2849833816e-02    1.0118519531e+05
    1.2859591283e-02    1.0118496094e+05
    1.2869618833e-02    1.0118496875e+05
    1.2879645452e-02    1.0118496094e+05
    1.2889673002e-02    1.0118499219e+05
    1.2899708934e-02    1.0118497656e+05
    1.2909754179e-02    1.0118499219e+05
    1.2919804081e-02    1.0118491406e+05
    1.2929581106e-02    1.0118485156e+05
    1.2939628214e-02    1.0118486719e+05
    1.2949672528e-02    1.0118471875e+05
    1.2959714979e-02    1.0118446875e+05
    1.2969756499e-02    1.0118418750e+05
    1.2979795225e-02    1.0118412500e+05
    1.2989574112e-02    1.0118403906e+05
    1.2999642640e-02    1.0118416406e+05
    1.3009718619e-02    1.0118428125e+05
    1.3019791804e-02    1.0118428125e+05
    1.3029592112e-02    1.0118427344e+05
    1.3039663434e-02    1.0118414844e+05
    1.3049738482e-02    1.0118399219e+05
    1.3059815392e-02    1.0118400781e+05
    1.3069620356e-02    1.0118383594e+05
    1.3079696335e-02    1.0118403906e+05
    1.3089771383e-02    1.0118391406e+05
    1.3099577278e-02    1.0118384375e+05
    1.3109659776e-02    1.0118383594e+05
    1.3119745068e-02    1.0118291406e+05
    1.3129828498e-02    1.0118309375e+05
    1.3139641844e-02    1.0118309375e+05
    1.3149729930e-02    1.0118322656e+05
    1.3159818016e-02    1.0118331250e+05
    1.3169632293e-02    1.0118335156e+05
    1.3179719448e-02    1.0118282031e+05
    1.3189807534e-02    1.0118257031e+05
    1.3199627399e-02    1.0118277344e+05
    1.3209722005e-02    1.0118269531e+05
    1.3219814748e-02    1.0118225000e+05
    1.3229633681e-02    1.0118214844e+05
    1.3239725493e-02    1.0118196094e+05
    1.3249815442e-02    1.0118210156e+05
    1.3259637170e-02    1.0118200781e+05
    1.3269737363e-02    1.0118224219e+05
    1.3279564679e-02    1.0118221094e+05
    1.3289664872e-02    1.0118212500e+05
    1.3299764134e-02    1.0118224219e+05
    1.3309591450e-02    1.0118208594e+05
    1.3319701888e-02    1.0118194531e+05
    1.3329820707e-02    1.0118208594e+05
    1.3339666650e-02    1.0118200781e+05
    1.3349783607e-02    1.0118194531e+05
    1.3359625824e-02    1.0118203906e+05
    1.3369739987e-02    1.0118209375e+05
    1.3379582204e-02    1.0118208594e+05
    1.3389707543e-02    1.0118218750e+05
    1.3399566524e-02    1.0118203125e+05
    1.3409699313e-02    1.0118203906e+05
    1.3419556431e-02    1.0118221875e+05
    1.3429690152e-02    1.0118212500e+05
    1.3439558446e-02    1.0118221094e+05
    1.3449702412e-02    1.0118221094e+05
    1.3459571637e-02    1.0118230469e+05
    1.3469713740e-02    1.0118238281e+05
    1.3479580171e-02    1.0118231250e+05
    1.3489724137e-02    1.0118228906e+05
    1.3499597088e-02    1.0118239844e+05
    1.3509744778e-02    1.0118247656e+05
    1.3519617729e-02    1.0118246094e+05
    1.3529766351e-02    1.0118246094e+05
    1.3539644890e-02    1.0118246094e+05
    1.3549798168e-02    1.0118228125e+05
    1.3559673913e-02    1.0118234375e+05
    1.3569546863e-02    1.0118231250e+05
    1.3579688966e-02    1.0118228125e+05
    1.3589570299e-02    1.0118214844e+05
    1.3599753380e-02    1.0118215625e+05
    1.3609671965e-02    1.0118228906e+05
    1.3619587757e-02    1.0118228125e+05
    1.3629776426e-02    1.0118247656e+05
    1.3639688492e-02    1.0118243750e+05
    1.3649618253e-02    1.0118243750e+05
    1.3659559190e-02    1.0118239844e+05
    1.3669773936e-02    1.0118253906e+05
    1.3679709285e-02    1.0118239844e+05
    1.3689640909e-02    1.0118234375e+05
    1.3699574396e-02    1.0118242969e+05
    1.3709805906e-02    1.0118243750e+05
    1.3719769195e-02    1.0118244531e+05
    1.3729730621e-02    1.0118256250e+05
    1.3739689253e-02    1.0118252344e+05
    1.3749643229e-02    1.0118244531e+05
    1.3759615831e-02    1.0118230469e+05
    1.3769609854e-02    1.0118239844e+05
    1.3779604807e-02    1.0118228125e+05
    1.3789596967e-02    1.0118234375e+05
    1.3799586333e-02    1.0118243750e+05
    1.3809571043e-02    1.0118225781e+05
    1.3819572516e-02    1.0118241406e+05
    1.3829590753e-02    1.0118221094e+05
    1.3839617372e-02    1.0118249219e+05
    1.3849642128e-02    1.0118236719e+05
    1.3859665953e-02    1.0118252344e+05
    1.3869686984e-02    1.0118252344e+05
    1.3879711740e-02    1.0118264844e+05
    1.3889748603e-02    1.0118256250e+05
    1.3899792917e-02    1.0118259375e+05
    1.3909557834e-02    1.0118260156e+05
    1.3919600286e-02    1.0118258594e+05
    1.3929642737e-02    1.0118266406e+05
    1.3939687982e-02    1.0118261719e+05
    1.3949735090e-02    1.0118253125e+05
    1.3959781267e-02    1.0118241406e+05
    1.3969548047e-02    1.0118246094e+05
    1.3979598880e-02    1.0118237500e+05
    1.3989655301e-02    1.0118246094e+05
    1.3999708928e-02    1.0118234375e+05
    1.4009760693e-02    1.0118231250e+05
    1.4019531198e-02    1.0118228906e+05
    1.4029581100e-02    1.0118227344e+05
    1.4039649628e-02    1.0118228125e+05
    1.4049727470e-02    1.0118232031e+05
    1.4059524052e-02    1.0118222656e+05
    1.4069598168e-02    1.0118221875e+05
    1.4079669490e-02    1.0118228125e+05
    1.4089747332e-02    1.0118239844e+05
    1.4099561609e-02    1.0118243750e+05
    1.4109660871e-02    1.0118260156e+05
    1.4119758271e-02    1.0118278906e+05
    1.4129574411e-02    1.0118280469e+05
    1.4139672741e-02    1.0118287500e+05
    1.4149785973e-02    1.0118285156e+05
    1.4159627259e-02    1.0118285156e+05
    1.4169748873e-02    1.0118285156e+05
    1.4179587364e-02    1.0118283594e+05
    1.4189704321e-02    1.0118285156e+05
    1.4199537225e-02    1.0118281250e+05
    1.4209667221e-02    1.0118296094e+05
    1.4219525270e-02    1.0118299219e+05
    1.4229662716e-02    1.0118297656e+05
    1.4239516109e-02    1.0118289844e+05
    1.4249647968e-02    1.0118283594e+05
    1.4259508811e-02    1.0118307031e+05
    1.4269669540e-02    1.0118307031e+05
    1.4279558323e-02    1.0118310156e+05
    1.4289728366e-02    1.0118308594e+05
    1.4299614355e-02    1.0118325000e+05
    1.4309781604e-02    1.0118335156e+05
    1.4319665730e-02    1.0118332031e+05
    1.4329551719e-02    1.0118221094e+05
    1.4339720830e-02    1.0118227344e+05
    1.4349605888e-02    1.0118230469e+05
    1.4359770343e-02    1.0118233594e+05
    1.4369658194e-02    1.0118239844e+05
    1.4379564673e-02    1.0118247656e+05
    1.4389766380e-02    1.0118249219e+05
    1.4399682172e-02    1.0118253125e+05
    1.4409595169e-02    1.0118252344e+05
    1.4419502579e-02    1.0118249219e+05
    1.4429703355e-02    1.0118181250e+05
    1.4439650811e-02    1.0118186719e+05
    1.4449612238e-02    1.0118182031e+05
    1.4459570870e-02    1.0118200000e+05
    1.4469524845e-02    1.0118215625e+05
    1.4479761943e-02    1.0118221094e+05
    1.4489712194e-02    1.0118227344e+05
    1.4499680139e-02    1.0118218750e+05
    1.4509658329e-02    1.0118235156e+05
    1.4519643039e-02    1.0118243750e+05
    1.4529632404e-02    1.0118243750e+05
    1.4539622702e-02    1.0118260156e+05
    1.4549612068e-02    1.0118253125e+05
    1.4559598640e-02    1.0118266406e+05
    1.4569584280e-02    1.0118260156e+05
    1.4579568990e-02    1.0118277344e+05
    1.4589555562e-02    1.0118280469e+05
    1.4599551447e-02    1.0118285156e+05
    1.4609555714e-02    1.0118306250e+05
    1.4619564638e-02    1.0118303125e+05
    1.4629572630e-02    1.0118299219e+05
    1.4639581554e-02    1.0118297656e+05
    1.4649589546e-02    1.0118299219e+05
    1.4659599401e-02    1.0118294531e+05
    1.4669612050e-02    1.0118289844e+05
    1.4679623768e-02    1.0118286719e+05
    1.4689633623e-02    1.0118281250e+05
    1.4699641615e-02    1.0118285156e+05
    1.4709645882e-02    1.0118290625e+05
    1.4719657600e-02    1.0118278906e+05
    1.4729686081e-02    1.0118264844e+05
    1.4739722013e-02    1.0118249219e+05
    1.4749762602e-02    1.0118225000e+05
    1.4759519137e-02    1.0118225781e+05
    1.4769564383e-02    1.0118227344e+05
    1.4779608697e-02    1.0118227344e+05
    1.4789649285e-02    1.0118212500e+05
    1.4799687080e-02    1.0118221094e+05
    1.4809721150e-02    1.0118228125e+05
    1.4819758944e-02    1.0118228906e+05
    1.4829540625e-02    1.0118243750e+05
    1.4839627780e-02    1.0118233594e+05
    1.4849722385e-02    1.0118215625e+05
    1.4859525487e-02    1.0118225000e+05
    1.4869616367e-02    1.0118210156e+05
    1.4879705384e-02    1.0118214844e+05
    1.4889506623e-02    1.0118212500e+05
    1.4899596572e-02    1.0118217969e+05
    1.4909688383e-02    1.0118216406e+05
    1.4919494279e-02    1.0118216406e+05
    1.4929590747e-02    1.0118202344e+05
    1.4939688146e-02    1.0118203906e+05
    1.4949495904e-02    1.0118208594e+05
    1.4959594235e-02    1.0118216406e+05
    1.4969695359e-02    1.0118210156e+05
    1.4979507774e-02    1.0118196875e+05
    1.4989607036e-02    1.0118187500e+05
    1.4999704435e-02    1.0118192969e+05
    1.5009512194e-02    1.0118186719e+05
    1.5019604936e-02    1.0118187500e+05
    1.5029709786e-02    1.0118200000e+05
    1.5039539896e-02    1.0118200781e+05
    1.5049670823e-02    1.0118203906e+05
    1.5059517696e-02    1.0118203906e+05
    1.5069653280e-02    1.0118202344e+05
    1.5079497360e-02    1.0118203906e+05
    1.5089630149e-02    1.0118190625e+05
    1.5099473298e-02    1.0118197656e+05
    1.5109606087e-02    1.0118184375e+05
    1.5119741671e-02    1.0118190625e+05
    1.5129593201e-02    1.0118183594e+05
    1.5139734372e-02    1.0118189844e+05
    1.5149584971e-02    1.0118197656e+05
    1.5159725212e-02    1.0118191406e+05
    1.5169574879e-02    1.0118211719e+05
    1.5179715119e-02    1.0118216406e+05
    1.5189569443e-02    1.0118216406e+05
    1.5199713409e-02    1.0118209375e+05
    1.5209566802e-02    1.0118210156e+05
    1.5219708905e-02    1.0118203906e+05
    1.5229559503e-02    1.0118210156e+05
    1.5239701606e-02    1.0118202344e+05
    1.5249560587e-02    1.0118211719e+05
    1.5259714797e-02    1.0118180469e+05
    1.5269582160e-02    1.0118177344e+05
    1.5279740095e-02    1.0118178906e+05
    1.5289607458e-02    1.0118197656e+05
    1.5299474820e-02    1.0118177344e+05
    1.5309635550e-02    1.0118171875e+05
    1.5319512226e-02    1.0118166406e+05
    1.5329685062e-02    1.0118157031e+05
    1.5339570120e-02    1.0118143750e+05
    1.5349745750e-02    1.0118141406e+05
    1.5359629877e-02    1.0118152344e+05
    1.5369513072e-02    1.0118147656e+05
    1.5379685909e-02    1.0118162500e+05
    1.5389568172e-02    1.0118139844e+05
    1.5399741009e-02    1.0118146094e+05
    1.5409623273e-02    1.0118135156e+05
    1.5419506468e-02    1.0118144531e+05
    1.5429678373e-02    1.0118146875e+05
    1.5439562500e-02    1.0118141406e+05
    1.5449740924e-02    1.0118144531e+05
    1.5459633432e-02    1.0118146094e+05
    1.5469525941e-02    1.0118146094e+05
    1.5479709022e-02    1.0118146094e+05
    1.5489600599e-02    1.0118147656e+05
    1.5499492176e-02    1.0118147656e+05
    1.5509674326e-02    1.0118137500e+05
    1.5519564971e-02    1.0118139844e+05
    1.5529455617e-02    1.0118133594e+05
    1.5539636835e-02    1.0118136719e+05
    1.5549527481e-02    1.0118141406e+05
    1.5559710562e-02    1.0118135156e+05
    1.5569604002e-02    1.0118141406e+05
    1.5579495579e-02    1.0118142969e+05
    1.5589677729e-02    1.0118139844e+05
    1.5599567443e-02    1.0118137500e+05
    1.5609470196e-02    1.0118125781e+05
    1.5619678423e-02    1.0118140625e+05
    1.5629600734e-02    1.0118122656e+05
    1.5639523044e-02    1.0118127344e+05
    1.5649734065e-02    1.0118135156e+05
    1.5659652650e-02    1.0118146094e+05
    1.5669573098e-02    1.0118162500e+05
    1.5679491684e-02    1.0118175781e+05
    1.5689698979e-02    1.0118186719e+05
    1.5699611977e-02    1.0118200781e+05
    1.5709521249e-02    1.0118219531e+05
    1.5719730407e-02    1.0118236719e+05
    1.5729678795e-02    1.0118225000e+05
    1.5739640221e-02    1.0118232031e+05
    1.5749599785e-02    1.0118240625e+05
    1.5759555623e-02    1.0118191406e+05
    1.5769507736e-02    1.0118189844e+05
    1.5779457986e-02    1.0118200000e+05
    1.5789706260e-02    1.0118191406e+05
    1.5799691901e-02    1.0118196094e+05
    1.5809690580e-02    1.0118177344e+05
    1.5819692984e-02    1.0118175781e+05
    1.5829693526e-02    1.0118191406e+05
    1.5839690343e-02    1.0118203125e+05
    1.5849685296e-02    1.0118191406e+05
    1.5859678388e-02    1.0118197656e+05
    1.5869675204e-02    1.0118203906e+05
    1.5879690647e-02    1.0118216406e+05
    1.5889717266e-02    1.0118225000e+05
    1.5899749473e-02    1.0118227344e+05
    1.5909487382e-02    1.0118227344e+05
    1.5919517726e-02    1.0118228906e+05
    1.5929548070e-02    1.0118234375e+05
    1.5939574689e-02    1.0118231250e+05
    1.5949601308e-02    1.0118246094e+05
    1.5959626064e-02    1.0118258594e+05
    1.5969663858e-02    1.0118263281e+05
    1.5979714692e-02    1.0118278906e+05
    1.5989473090e-02    1.0118280469e+05
    1.5999527648e-02    1.0118285156e+05
    1.6009578481e-02    1.0118278906e+05
    1.6019629315e-02    1.0118288281e+05
    1.6029678285e-02    1.0118297656e+05
    1.6039736569e-02    1.0118290625e+05
    1.6049509868e-02    1.0118218750e+05
    1.6059586778e-02    1.0118168750e+05
    1.6069665551e-02    1.0118147656e+05
    1.6079740599e-02    1.0118116406e+05
    1.6089517623e-02    1.0118127344e+05
    1.6099588946e-02    1.0118119531e+05
    1.6109660268e-02    1.0118121875e+05
    1.6119731590e-02    1.0118125781e+05
    1.6129514202e-02    1.0118130469e+05
    1.6139598563e-02    1.0118122656e+05
    1.6149690375e-02    1.0118119531e+05
    1.6159489751e-02    1.0118155469e+05
    1.6169587150e-02    1.0118156250e+05
    1.6179684550e-02    1.0118164844e+05
    1.6189485788e-02    1.0118169531e+05
    1.6199581325e-02    1.0118194531e+05
    1.6209678724e-02    1.0118183594e+05
    1.6219474375e-02    1.0118189844e+05
    1.6229568049e-02    1.0118202344e+05
    1.6239656135e-02    1.0118196094e+05
    1.6249753535e-02    1.0118118750e+05
    1.6259571537e-02    1.0118097656e+05
    1.6269696876e-02    1.0118084375e+05
    1.6279524192e-02    1.0118108594e+05
    1.6289649531e-02    1.0118114844e+05
    1.6299474984e-02    1.0118114844e+05
    1.6309598461e-02    1.0118117969e+05
    1.6319720075e-02    1.0118134375e+05
    1.6329545528e-02    1.0118121094e+05
    1.6339667141e-02    1.0118118750e+05
    1.6349492595e-02    1.0118127344e+05
    1.6359614208e-02    1.0118138281e+05
    1.6369737685e-02    1.0118146875e+05
    1.6379561275e-02    1.0118144531e+05
    1.6389684752e-02    1.0118143750e+05
    1.6399508342e-02    1.0118139844e+05
    1.6409629956e-02    1.0118146094e+05
    1.6419751570e-02    1.0118164844e+05
    1.6429575160e-02    1.0118160156e+05
    1.6439698637e-02    1.0118172656e+05
    1.6449524090e-02    1.0118141406e+05
    1.6459651291e-02    1.0118143750e+05
    1.6469484195e-02    1.0118146094e+05
    1.6479615122e-02    1.0118149219e+05
    1.6489746049e-02    1.0118153906e+05
    1.6499578953e-02    1.0118163281e+05
    1.6509708017e-02    1.0118165625e+05
    1.6519540921e-02    1.0118167969e+05
    1.6529669985e-02    1.0118167969e+05
    1.6539499164e-02    1.0118175000e+05
    1.6549628228e-02    1.0118178906e+05
    1.6559757292e-02    1.0118178906e+05
    1.6569590196e-02    1.0118196094e+05
    1.6579721123e-02    1.0118202344e+05
    1.6589552164e-02    1.0118194531e+05
    1.6599683091e-02    1.0118203125e+05
    1.6609514132e-02    1.0118233594e+05
    1.6619643196e-02    1.0118233594e+05
    1.6629770398e-02    1.0118239844e+05
    1.6639603302e-02    1.0118250000e+05
    1.6649739817e-02    1.0118249219e+05
    1.6659580171e-02    1.0118246094e+05
    1.6669718549e-02    1.0118244531e+05
    1.6679558903e-02    1.0118253125e+05
    1.6689695418e-02    1.0118260156e+05
    1.6699535772e-02    1.0118283594e+05
    1.6709677875e-02    1.0118296094e+05
    1.6719520092e-02    1.0118296094e+05
    1.6729662195e-02    1.0118293750e+05
    1.6739504412e-02    1.0118272656e+05
    1.6749648377e-02    1.0118278125e+05
    1.6759788617e-02    1.0118277344e+05
    1.6769630834e-02    1.0118292969e+05
    1.6779771075e-02    1.0118296875e+05
    1.6789611429e-02    1.0118302344e+05
    1.6799753532e-02    1.0118308594e+05
    1.6809606925e-02    1.0118312500e+05
    1.6819756478e-02    1.0118324219e+05
    1.6829608008e-02    1.0118333594e+05
    1.6839755699e-02    1.0118335156e+05
    1.6849603504e-02    1.0118332031e+05
    1.6859749332e-02    1.0118352344e+05
    1.6869597137e-02    1.0118347656e+05
    1.6879752278e-02    1.0118347656e+05
    1.6889624298e-02    1.0118347656e+05
    1.6899801791e-02    1.0118342969e+05
    1.6909679398e-02    1.0118353125e+05
    1.6919551417e-02    1.0118367969e+05
    1.6929721460e-02    1.0118391406e+05
    1.6939591616e-02    1.0118394531e+05
    1.6949757934e-02    1.0118409375e+05
    1.6959642991e-02    1.0118417969e+05
    1.6969548538e-02    1.0118411719e+05
    1.6979757696e-02    1.0118410156e+05
    1.6989665106e-02    1.0118421875e+05
    1.6999572515e-02    1.0118413281e+05
    1.7009779811e-02    1.0118412500e+05
    1.7019685358e-02    1.0118428906e+05
    1.7029590905e-02    1.0118415625e+05
    1.7039796337e-02    1.0118428125e+05
    1.7049703747e-02    1.0118441406e+05
    1.7059611157e-02    1.0118441406e+05
    1.7069516703e-02    1.0118446094e+05
    1.7079722136e-02    1.0118396094e+05
    1.7089625821e-02    1.0118300000e+05
    1.7099533230e-02    1.0118294531e+05
    1.7109749839e-02    1.0118288281e+05
    1.7119668424e-02    1.0118303906e+05
    1.7129583284e-02    1.0118314844e+05
    1.7139799893e-02    1.0118303125e+05
    1.7149714753e-02    1.0118305469e+05
    1.7159627751e-02    1.0118296094e+05
    1.7169548199e-02    1.0118292969e+05
    1.7179774120e-02    1.0118289844e+05
    1.7189707607e-02    1.0118299219e+05
    1.7199642956e-02    1.0118302344e+05
    1.7209580168e-02    1.0118300781e+05
    1.7219815403e-02    1.0118303125e+05
    1.7229748890e-02    1.0118313281e+05
    1.7239682376e-02    1.0118302344e+05
    1.7249615863e-02    1.0118308594e+05
    1.7259547487e-02    1.0118309375e+05
    1.7269778997e-02    1.0118309375e+05
    1.7279708758e-02    1.0118302344e+05
    1.7289640382e-02    1.0118297656e+05
    1.7299581319e-02    1.0118305469e+05
    1.7309529707e-02    1.0118306250e+05
    1.7319785431e-02    1.0118291406e+05
    1.7329735681e-02    1.0118280469e+05
    1.7339685932e-02    1.0118278906e+05
    1.7349636182e-02    1.0118285156e+05
    1.7359586433e-02    1.0118297656e+05
    1.7369536683e-02    1.0118297656e+05
    1.7379794270e-02    1.0118290625e+05
    1.7389748245e-02    1.0118307031e+05
    1.7399702221e-02    1.0118303125e+05
    1.7409656197e-02    1.0118310156e+05
    1.7419608310e-02    1.0118302344e+05
    1.7429566011e-02    1.0118324219e+05
    1.7439533025e-02    1.0118327344e+05
    1.7449805513e-02    1.0118335156e+05
    1.7459772527e-02    1.0118335156e+05
    1.7469737679e-02    1.0118325781e+05
    1.7479700968e-02    1.0118327344e+05
    1.7489662394e-02    1.0118308594e+05
    1.7499629408e-02    1.0118314844e+05
    1.7509609461e-02    1.0118308594e+05
    1.7519604415e-02    1.0118309375e+05
    1.7529608682e-02    1.0118306250e+05
    1.7539611086e-02    1.0118310156e+05
    1.7549613491e-02    1.0118299219e+05
    1.7559612170e-02    1.0118278125e+05
    1.7569610849e-02    1.0118253125e+05
    1.7579615116e-02    1.0118233594e+05
    1.7589638010e-02    1.0118239844e+05
    1.7599673942e-02    1.0118246094e+05
    1.7609708011e-02    1.0118239844e+05
    1.7619738355e-02    1.0118246094e+05
    1.7629764974e-02    1.0118241406e+05
    1.7639791593e-02    1.0118246875e+05
    1.7649818212e-02    1.0118257031e+05
    1.7659548670e-02    1.0118225000e+05
    1.7669597641e-02    1.0118236719e+05
    1.7679646611e-02    1.0118246094e+05
    1.7689693719e-02    1.0118241406e+05
    1.7699744552e-02    1.0118235156e+05
    1.7709806561e-02    1.0118230469e+05
    1.7719570547e-02    1.0118249219e+05
    1.7729636282e-02    1.0118236719e+05
    1.7739700153e-02    1.0118227344e+05
    1.7749764025e-02    1.0118221094e+05
    1.7759827897e-02    1.0118207031e+05
    1.7769595608e-02    1.0118219531e+05
    1.7779685557e-02    1.0118217969e+05
    1.7789773643e-02    1.0118215625e+05
    1.7799558118e-02    1.0118186719e+05
    1.7809646204e-02    1.0118121875e+05
    1.7819738016e-02    1.0118133594e+05
    1.7829829827e-02    1.0118128906e+05
    1.7839616165e-02    1.0118136719e+05
    1.7849706113e-02    1.0118144531e+05
    1.7859796062e-02    1.0118138281e+05
    1.7869578674e-02    1.0118139844e+05
    1.7879666761e-02    1.0118116406e+05
    1.7889754847e-02    1.0118117969e+05
    1.7899841070e-02    1.0118127344e+05
    1.7909625545e-02    1.0118125000e+05
    1.7919726670e-02    1.0118131250e+05
    1.7929837108e-02    1.0118141406e+05
    1.7939643934e-02    1.0118146875e+05
    1.7949758098e-02    1.0118166406e+05
    1.7959561199e-02    1.0118189844e+05
    1.7969666049e-02    1.0118194531e+05
    1.7979769036e-02    1.0118203906e+05
    1.7989560962e-02    1.0118216406e+05
    1.7999652773e-02    1.0118208594e+05
    1.8009738997e-02    1.0118216406e+05
    1.8019819632e-02    1.0118228125e+05
    1.8029589206e-02    1.0118214844e+05
    1.8039656803e-02    1.0118225000e+05
    1.8049720675e-02    1.0118210156e+05
    1.8059780821e-02    1.0118215625e+05
    1.8069833517e-02    1.0118219531e+05
    1.8079578876e-02    1.0118155469e+05
    1.8089625984e-02    1.0118106250e+05
    1.8099667504e-02    1.0118114844e+05
    1.8109705299e-02    1.0118116406e+05
    1.8119743094e-02    1.0118115625e+05
    1.8129575998e-02    1.0118105469e+05
    1.8139855936e-02    1.0118121094e+05
    1.8149645999e-02    1.0118135156e+05
    1.8159562722e-02    1.0118146094e+05
    1.8169606104e-02    1.0118135156e+05
    1.8179778010e-02    1.0118150781e+05
    1.8189743161e-02    1.0118146875e+05
    1.8199829385e-02    1.0118071094e+05
    1.8209690228e-02    1.0118022656e+05
    1.8219664693e-02    1.0118000000e+05
    1.8229752779e-02    1.0117974219e+05
    1.8239596859e-02    1.0117999219e+05
    1.8249545246e-02    1.0117983594e+05
    1.8259597942e-02    1.0117996094e+05
    1.8269753084e-02    1.0117997656e+05
    1.8279641867e-02    1.0117999219e+05
    1.8289621919e-02    1.0117991406e+05
    1.8299687654e-02    1.0117987500e+05
    1.8309833482e-02    1.0117985156e+05
    1.8319677562e-02    1.0117986719e+05
    1.8329577520e-02    1.0117991406e+05
    1.8339533359e-02    1.0118008594e+05
    1.8349790946e-02    1.0118027344e+05
    1.8359767273e-02    1.0118028906e+05
    1.8369672820e-02    1.0118039844e+05
    1.8379814923e-02    1.0118038281e+05
    1.8389699981e-02    1.0118035156e+05
    1.8399883062e-02    1.0118039844e+05
    1.8409680575e-02    1.0118052344e+05
    1.8419759348e-02    1.0118066406e+05
    1.8429832533e-02    1.0118071094e+05
    1.8439646810e-02    1.0118080469e+05
    1.8449727446e-02    1.0118093750e+05
    1.8459834158e-02    1.0118096094e+05
    1.8469721079e-02    1.0118122656e+05
    1.8479635939e-02    1.0118146094e+05
    1.8489824608e-02    1.0118146094e+05
    1.8499750644e-02    1.0118172656e+05
    1.8509676680e-02    1.0118175781e+05
    1.8519863486e-02    1.0118191406e+05
    1.8529789522e-02    1.0118203125e+05
    1.8539715558e-02    1.0118203906e+05
    1.8549643457e-02    1.0118206250e+05
    1.8559835851e-02    1.0118203906e+05
    1.8569773063e-02    1.0118227344e+05
    1.8579719588e-02    1.0118214844e+05
    1.8589669839e-02    1.0118221875e+05
    1.8599882722e-02    1.0118237500e+05
    1.8609831110e-02    1.0118216406e+05
    1.8619779497e-02    1.0118212500e+05
    1.8629727885e-02    1.0118153125e+05
    1.8639676273e-02    1.0118152344e+05
    1.8649892882e-02    1.0118149219e+05
    1.8659856170e-02    1.0118167969e+05
    1.8669828773e-02    1.0118175781e+05
    1.8679799512e-02    1.0118175000e+05
    1.8689770252e-02    1.0118175781e+05
    1.8699740991e-02    1.0118183594e+05
    1.8709711730e-02    1.0118171094e+05
    1.8719684333e-02    1.0118180469e+05
    1.8729662523e-02    1.0118182031e+05
    1.8739644438e-02    1.0118187500e+05
    1.8749890849e-02    1.0118200000e+05
    1.8759872764e-02    1.0118203125e+05
    1.8769856542e-02    1.0118214844e+05
    1.8779838458e-02    1.0118224219e+05
    1.8789820373e-02    1.0118221875e+05
    1.8799802288e-02    1.0118221094e+05
    1.8809784204e-02    1.0118227344e+05
    1.8819767982e-02    1.0118227344e+05
    1.8829749897e-02    1.0118221875e+05
    1.8839731812e-02    1.0118194531e+05
    1.8849715590e-02    1.0118103906e+05
    1.8859701231e-02    1.0118103906e+05
    1.8869686872e-02    1.0118081250e+05
    1.8879672512e-02    1.0118088281e+05
    1.8889658153e-02    1.0118080469e+05
    1.8899908289e-02    1.0118081250e+05
    1.8909895793e-02    1.0118072656e+05
    1.8919883296e-02    1.0118093750e+05
    1.8929870799e-02    1.0118108594e+05
    1.8939862028e-02    1.0118114844e+05
    1.8949855119e-02    1.0118103906e+05
    1.8959848210e-02    1.0118114844e+05
    1.8969843164e-02    1.0118117969e+05
    1.8979836255e-02    1.0118144531e+05
    1.8989831209e-02    1.0118144531e+05
    1.8999826163e-02    1.0118135156e+05
    1.9009819254e-02    1.0118166406e+05
    1.9019819796e-02    1.0118155469e+05
    1.9029827788e-02    1.0118169531e+05
    1.9039837644e-02    1.0118175781e+05
    1.9049854949e-02    1.0118184375e+05
    1.9059874117e-02    1.0118191406e+05
    1.9069895148e-02    1.0118191406e+05
    1.9079914317e-02    1.0118171875e+05
    1.9089668989e-02    1.0118184375e+05
    1.9099686295e-02    1.0118139844e+05
    1.9109701738e-02    1.0118089844e+05
    1.9119715318e-02    1.0118072656e+05
    1.9129730761e-02    1.0118060156e+05
    1.9139746204e-02    1.0118085156e+05
    1.9149776548e-02    1.0118093750e+05
    1.9159827381e-02    1.0118116406e+05
    1.9169893116e-02    1.0118108594e+05
    1.9179699942e-02    1.0118121094e+05
    1.9189773127e-02    1.0118127344e+05
    1.9199844450e-02    1.0118124219e+05
    1.9209917635e-02    1.0118146875e+05
    1.9219722599e-02    1.0118150000e+05
    1.9229795784e-02    1.0118147656e+05
    1.9239867106e-02    1.0118166406e+05
    1.9249672070e-02    1.0118159375e+05
    1.9259743392e-02    1.0118162500e+05
    1.9269812852e-02    1.0118188281e+05
    1.9279882312e-02    1.0118203906e+05
    1.9289687276e-02    1.0118221094e+05
    1.9299756736e-02    1.0118227344e+05
    1.9309824333e-02    1.0118228906e+05
    1.9319890067e-02    1.0118227344e+05
    1.9329693168e-02    1.0118219531e+05
    1.9339758903e-02    1.0118225000e+05
    1.9349830225e-02    1.0118227344e+05
    1.9359905273e-02    1.0118230469e+05
    1.9369721413e-02    1.0118230469e+05
    1.9379802048e-02    1.0118246094e+05
    1.9389882684e-02    1.0118252344e+05
    1.9399698824e-02    1.0118240625e+05
    1.9409779459e-02    1.0118253125e+05
    1.9419858232e-02    1.0118105469e+05
    1.9429938868e-02    1.0118071094e+05
    1.9439753145e-02    1.0118092969e+05
[...]
    3.0140280724e-02    9.8927664062e+04
    3.0150355771e-02    9.8904289062e+04
    3.0160430819e-02    9.8882476562e+04
    3.0170507729e-02    9.8860398438e+04
    3.0180258676e-02    9.8838835938e+04
    3.0190333724e-02    9.8817945312e+04
    3.0200410634e-02    9.8796070312e+04
    3.0210485682e-02    9.8777468750e+04
    3.0220236629e-02    9.8757039062e+04
    3.0230311677e-02    9.8737156250e+04
    3.0240386724e-02    9.8717398438e+04
    3.0250461772e-02    9.8696398438e+04
    3.0260212719e-02    9.8676898438e+04
    3.0270287767e-02    9.8655976562e+04
    3.0280362815e-02    9.8634250000e+04
    3.0290437862e-02    9.8614351562e+04
    3.0300512910e-02    9.8592906250e+04
    3.0310263857e-02    9.8573101562e+04
    3.0320340768e-02    9.8553093750e+04
    3.0330417678e-02    9.8532914062e+04
    3.0340494588e-02    9.8514460938e+04
    3.0350245535e-02    9.8494835938e+04
    3.0360324308e-02    9.8474523438e+04
    3.0370401219e-02    9.8454632812e+04
    3.0380479991e-02    9.8434414062e+04
    3.0390232801e-02    9.8415210938e+04
    3.0400313437e-02    9.8394210938e+04
    3.0410392210e-02    9.8375351562e+04
    3.0420472845e-02    9.8355539062e+04
    3.0430227518e-02    9.8338023438e+04
    3.0440308154e-02    9.8319312500e+04
    3.0450386927e-02    9.8298460938e+04
    3.0460467562e-02    9.8279906250e+04
    3.0470222235e-02    9.8261593750e+04
    3.0480302870e-02    9.8242148438e+04
    3.0490381643e-02    9.8222851562e+04
    3.0500462279e-02    9.8203679688e+04
    3.0510216951e-02    9.8185335938e+04
    3.0520299450e-02    9.8165718750e+04
    3.0530380085e-02    9.8146914062e+04
    3.0540462583e-02    9.8126164062e+04
    3.0550219119e-02    9.8107414062e+04
    3.0560301617e-02    9.8087226562e+04
    3.0570384115e-02    9.8067585938e+04
    3.0580466613e-02    9.8047523438e+04
    3.0590225011e-02    9.8027914062e+04
    3.0600307509e-02    9.8009218750e+04
    3.0610390007e-02    9.7989398438e+04
    3.0620472506e-02    9.7969281250e+04
    3.0630230904e-02    9.7950281250e+04
    3.0640313402e-02    9.7930351562e+04
    3.0650395900e-02    9.7911335938e+04
    3.0660480261e-02    9.7892210938e+04
    3.0670238659e-02    9.7872929688e+04
    3.0680323020e-02    9.7853429688e+04
    3.0690407380e-02    9.7833398438e+04
    3.0700493604e-02    9.7813273438e+04
    3.0710253865e-02    9.7793101562e+04
    3.0720340088e-02    9.7773968750e+04
    3.0730428174e-02    9.7753773438e+04
    3.0740514398e-02    9.7734304688e+04
    3.0750276521e-02    9.7715757812e+04
    3.0760362744e-02    9.7698164062e+04
    3.0770448968e-02    9.7679625000e+04
    3.0780537054e-02    9.7662289062e+04
    3.0790297315e-02    9.7646585938e+04
    3.0800385401e-02    9.7629882812e+04
    3.0810473487e-02    9.7613406250e+04
    3.0820235610e-02    9.7597492188e+04
    3.0830325559e-02    9.7581070312e+04
    3.0840415508e-02    9.7563023438e+04
    3.0850505456e-02    9.7545968750e+04
    3.0860271305e-02    9.7529117188e+04
    3.0870363116e-02    9.7511710938e+04
    3.0880456790e-02    9.7493835938e+04
    3.0890550464e-02    9.7475210938e+04
    3.0900318176e-02    9.7457101562e+04
    3.0910413712e-02    9.7438093750e+04
    3.0920507386e-02    9.7419195312e+04
    3.0930276960e-02    9.7400687500e+04
    3.0940370634e-02    9.7380773438e+04
    3.0950464308e-02    9.7362023438e+04
    3.0960559845e-02    9.7344570312e+04
    3.0970327556e-02    9.7327585938e+04
    3.0980423093e-02    9.7310398438e+04
    3.0990516767e-02    9.7293398438e+04
    3.1000284478e-02    9.7276226562e+04
    3.1010380015e-02    9.7258632812e+04
    3.1020473689e-02    9.7240773438e+04
    3.1030569226e-02    9.7222125000e+04
    3.1040338799e-02    9.7204351562e+04
    3.1050436199e-02    9.7185523438e+04
    3.1060531735e-02    9.7167492188e+04
    3.1070303172e-02    9.7149312500e+04
    3.1080400571e-02    9.7130906250e+04
    3.1090497971e-02    9.7113992188e+04
    3.1100269407e-02    9.7097414062e+04
    3.1110368669e-02    9.7080500000e+04
    3.1120467931e-02    9.7063414062e+04
    3.1130565330e-02    9.7046312500e+04
    3.1140338629e-02    9.7029898438e+04
    3.1150436029e-02    9.7013664062e+04
    3.1160535291e-02    9.6997570312e+04
    3.1170308590e-02    9.6981804688e+04
    3.1180405989e-02    9.6965898438e+04
    3.1190505251e-02    9.6948179688e+04
    3.1200278550e-02    9.6931085938e+04
    3.1210375950e-02    9.6912726562e+04
    3.1220475212e-02    9.6893585938e+04
    3.1230576336e-02    9.6873585938e+04
    3.1240349635e-02    9.6854523438e+04
    3.1250450760e-02    9.6835585938e+04
    3.1260550022e-02    9.6816976562e+04
    3.1270325184e-02    9.6799757812e+04
    3.1280424446e-02    9.6783132812e+04
    3.1290527433e-02    9.6766835938e+04
    3.1300302595e-02    9.6751289062e+04
    3.1310405582e-02    9.6735539062e+04
    3.1320508569e-02    9.6719289062e+04
    3.1330287457e-02    9.6702835938e+04
    3.1340390444e-02    9.6686023438e+04
    3.1350493431e-02    9.6669101562e+04
    3.1360272318e-02    9.6652281250e+04
    3.1370379031e-02    9.6635351562e+04
    3.1380482018e-02    9.6619335938e+04
    3.1390264630e-02    9.6603914062e+04
    3.1400371343e-02    9.6587812500e+04
    3.1410478055e-02    9.6572085938e+04
    3.1420256943e-02    9.6556914062e+04
    3.1430367380e-02    9.6540414062e+04
    3.1440474093e-02    9.6523757812e+04
    3.1450256705e-02    9.6507468750e+04
    3.1460367143e-02    9.6490585938e+04
    3.1470473856e-02    9.6473585938e+04
    3.1480256468e-02    9.6457570312e+04
    3.1490366906e-02    9.6440914062e+04
    3.1500473619e-02    9.6424250000e+04
    3.1510256231e-02    9.6409062500e+04
    3.1520362943e-02    9.6393742188e+04
    3.1530473381e-02    9.6377937500e+04
    3.1540255994e-02    9.6361656250e+04
    3.1550362706e-02    9.6346312500e+04
    3.1560473144e-02    9.6329601562e+04
    3.1570255756e-02    9.6313664062e+04
    3.1580362469e-02    9.6297562500e+04
    3.1590472907e-02    9.6280242188e+04
    3.1600255519e-02    9.6263718750e+04
    3.1610365957e-02    9.6246648438e+04
    3.1620476395e-02    9.6229585938e+04
    3.1630259007e-02    9.6213398438e+04
    3.1640369445e-02    9.6197851562e+04
    3.1650479883e-02    9.6182460938e+04
    3.1660266221e-02    9.6168187500e+04
    3.1670380384e-02    9.6153125000e+04
    3.1680490822e-02    9.6139812500e+04
    3.1690280885e-02    9.6126320312e+04
    3.1700395048e-02    9.6111976562e+04
    3.1710509211e-02    9.6097312500e+04
    3.1720299274e-02    9.6083054688e+04
    3.1730413437e-02    9.6069125000e+04
    3.1740199775e-02    9.6054898438e+04
    3.1750317663e-02    9.6040148438e+04
    3.1760435551e-02    9.6026164062e+04
    3.1770225614e-02    9.6012273438e+04
    3.1780343503e-02    9.5998023438e+04
    3.1790461391e-02    9.5982632812e+04
    3.1800251454e-02    9.5967937500e+04
    3.1810373068e-02    9.5953093750e+04
    3.1820494682e-02    9.5938085938e+04
    3.1830288470e-02    9.5922476562e+04
    3.1840410084e-02    9.5907093750e+04
    3.1850203872e-02    9.5891312500e+04
    3.1860325485e-02    9.5874781250e+04
    3.1870447099e-02    9.5858914062e+04
    3.1880244613e-02    9.5843031250e+04
    3.1890366226e-02    9.5826382812e+04
    3.1900491565e-02    9.5809226562e+04
    3.1910289079e-02    9.5792648438e+04
    3.1920410693e-02    9.5776210938e+04
    3.1930208206e-02    9.5760835938e+04
    3.1940333545e-02    9.5745914062e+04
    3.1950458884e-02    9.5732593750e+04
    3.1960256398e-02    9.5719226562e+04
    3.1970378011e-02    9.5707273438e+04
    3.1980179250e-02    9.5695132812e+04
    3.1990300864e-02    9.5682476562e+04
    3.2000426203e-02    9.5669960938e+04
    3.2010227442e-02    9.5656992188e+04
    3.2020352781e-02    9.5643445312e+04
    3.2030150294e-02    9.5630335938e+04
    3.2040275633e-02    9.5616398438e+04
    3.2050400972e-02    9.5601945312e+04
    3.2060202211e-02    9.5586476562e+04
    3.2070331275e-02    9.5571039062e+04
    3.2080456614e-02    9.5555062500e+04
    3.2090257853e-02    9.5539601562e+04
    3.2100386918e-02    9.5522781250e+04
    3.2110191882e-02    9.5506835938e+04
    3.2120320946e-02    9.5491585938e+04
    3.2130453736e-02    9.5477085938e+04
    3.2140258700e-02    9.5463281250e+04
    3.2150391489e-02    9.5449335938e+04
    3.2160196453e-02    9.5434742188e+04
    3.2170332968e-02    9.5418632812e+04
    3.2180141658e-02    9.5402898438e+04
    3.2190274447e-02    9.5387835938e+04
    3.2200410962e-02    9.5372906250e+04
    3.2210223377e-02    9.5357945312e+04
    3.2220359892e-02    9.5343281250e+04
    3.2230168581e-02    9.5329343750e+04
    3.2240308821e-02    9.5315882812e+04
    3.2250445336e-02    9.5301835938e+04
    3.2260254025e-02    9.5288476562e+04
    3.2270394266e-02    9.5276125000e+04
    3.2280202955e-02    9.5263882812e+04
    3.2290343195e-02    9.5251750000e+04
    3.2300155610e-02    9.5239976562e+04
    3.2310295850e-02    9.5227820312e+04
    3.2320436090e-02    9.5215445312e+04
    3.2330248505e-02    9.5203460938e+04
    3.2340388745e-02    9.5191289062e+04
    3.2350201160e-02    9.5179195312e+04
    3.2360341400e-02    9.5167210938e+04
    3.2370153815e-02    9.5155226562e+04
    3.2380294055e-02    9.5141789062e+04
    3.2390110195e-02    9.5129406250e+04
    3.2400246710e-02    9.5115945312e+04
    3.2410386950e-02    9.5102164062e+04
    3.2420199364e-02    9.5088007812e+04
    3.2430335879e-02    9.5073945312e+04
    3.2440144569e-02    9.5060281250e+04
    3.2450277358e-02    9.5045773438e+04
    3.2460406423e-02    9.5031523438e+04
    3.2470207661e-02    9.5018164062e+04
    3.2480333000e-02    9.5004242188e+04
    3.2490130514e-02    9.4989968750e+04
    3.2500248402e-02    9.4975164062e+04
    3.2510370016e-02    9.4960773438e+04
    3.2520160079e-02    9.4947601562e+04
    3.2530289143e-02    9.4935773438e+04
    3.2540112734e-02    9.4924148438e+04
    3.2550290227e-02    9.4912718750e+04
    3.2560143620e-02    9.4901039062e+04
    3.2570324838e-02    9.4888617188e+04
    3.2580178231e-02    9.4877320312e+04
    3.2590366900e-02    9.4865445312e+04
    3.2600227743e-02    9.4853898438e+04
    3.2610084862e-02    9.4842226562e+04
    3.2620277256e-02    9.4829757812e+04
    3.2630141824e-02    9.4817851562e+04
    3.2640334219e-02    9.4805312500e+04
    3.2650202513e-02    9.4792726562e+04
    3.2660070807e-02    9.4779992188e+04
    3.2670270652e-02    9.4767164062e+04
    3.2680142671e-02    9.4754468750e+04
    3.2690349966e-02    9.4740875000e+04
    3.2700229436e-02    9.4728210938e+04
    3.2710108906e-02    9.4715101562e+04
    3.2720319927e-02    9.4701664062e+04
    3.2730206847e-02    9.4688812500e+04
    3.2740093768e-02    9.4677281250e+04
    3.2750308514e-02    9.4665312500e+04
    3.2760199159e-02    9.4653281250e+04
    3.2770086080e-02    9.4641000000e+04
    3.2780304551e-02    9.4628062500e+04
    3.2790195197e-02    9.4615625000e+04
    3.2800085843e-02    9.4603179688e+04
    3.2810308039e-02    9.4590218750e+04
    3.2820198685e-02    9.4577718750e+04
    3.2830089331e-02    9.4565406250e+04
    3.2840311527e-02    9.4553125000e+04
    3.2850202173e-02    9.4541226562e+04
    3.2860096544e-02    9.4529648438e+04
    3.2870318741e-02    9.4517320312e+04
    3.2880213112e-02    9.4505617188e+04
    3.2890107483e-02    9.4494093750e+04
    3.2900333405e-02    9.4482539062e+04
    3.2910227776e-02    9.4470781250e+04
    3.2920125872e-02    9.4459039062e+04
    3.2930355519e-02    9.4446914062e+04
    3.2940253615e-02    9.4435289062e+04
    3.2950155437e-02    9.4424164062e+04
    3.2960053533e-02    9.4412898438e+04
    3.2970286906e-02    9.4401617188e+04
    3.2980188727e-02    9.4390562500e+04
    3.2990090549e-02    9.4379773438e+04
    3.3000323921e-02    9.4368257812e+04
    3.3010229468e-02    9.4356929688e+04
    3.3020135015e-02    9.4345679688e+04
    3.3030040562e-02    9.4334335938e+04
    3.3040273935e-02    9.4321992188e+04
    3.3050179482e-02    9.4310335938e+04
    3.3060085028e-02    9.4298242188e+04
    3.3070322126e-02    9.4285445312e+04
    3.3080223948e-02    9.4273273438e+04
    3.3090129495e-02    9.4261085938e+04
    3.3100035042e-02    9.4248632812e+04
    3.3110272139e-02    9.4235757812e+04
    3.3120177686e-02    9.4223375000e+04
    3.3130083233e-02    9.4211750000e+04
    3.3140316606e-02    9.4200710938e+04
    3.3150222152e-02    9.4190523438e+04
    3.3160131425e-02    9.4180273438e+04
    3.3170036972e-02    9.4169914062e+04
    3.3180274069e-02    9.4159382812e+04
    3.3190183342e-02    9.4148242188e+04
    3.3200088888e-02    9.4136773438e+04
    3.3209998161e-02    9.4125093750e+04
    3.3220235258e-02    9.4113476562e+04
    3.3230144531e-02    9.4102585938e+04
    3.3240053803e-02    9.4091843750e+04
    3.3250290900e-02    9.4080835938e+04
    3.3260200173e-02    9.4070539062e+04
    3.3270113170e-02    9.4060773438e+04
    3.3280022442e-02    9.4050656250e+04
    3.3290263265e-02    9.4039710938e+04
    3.3300176263e-02    9.4029054688e+04
    3.3310089260e-02    9.4018148438e+04
    3.3320002258e-02    9.4006898438e+04
    3.3330246806e-02    9.3995257812e+04
    3.3340159804e-02    9.3983554688e+04
    3.3350072801e-02    9.3972093750e+04
    3.3359989524e-02    9.3960593750e+04
    3.3370234072e-02    9.3948539062e+04
    3.3380147070e-02    9.3936710938e+04
    3.3390063792e-02    9.3925195312e+04
    3.3399976790e-02    9.3914335938e+04
    3.3410225064e-02    9.3903585938e+04
    3.3420138061e-02    9.3893625000e+04
    3.3430054784e-02    9.3883687500e+04
    3.3439971507e-02    9.3874085938e+04
    3.3450216055e-02    9.3864539062e+04
    3.3460132778e-02    9.3855648438e+04
    3.3470045775e-02    9.3846726562e+04
    3.3479962498e-02    9.3837804688e+04
    3.3490207046e-02    9.3828664062e+04
    3.3500123769e-02    9.3819718750e+04
    3.3510040492e-02    9.3810375000e+04
    3.3519957215e-02    9.3800906250e+04
    3.3530201763e-02    9.3790492188e+04
    3.3540118486e-02    9.3780375000e+04
    3.3550035208e-02    9.3770351562e+04
    3.3559951931e-02    9.3760289062e+04
    3.3570196480e-02    9.3749726562e+04
    3.3580116928e-02    9.3739789062e+04
    3.3590033650e-02    9.3729867188e+04
    3.3599950373e-02    9.3719648438e+04
    3.3610198647e-02    9.3709335938e+04
    3.3620119095e-02    9.3698679688e+04
    3.3630035818e-02    9.3687445312e+04
    3.3639956266e-02    9.3676250000e+04
    3.3650208265e-02    9.3664250000e+04
    3.3660128713e-02    9.3652570312e+04
    3.3670049161e-02    9.3641468750e+04
    3.3679969609e-02    9.3630773438e+04
    3.3690221608e-02    9.3619664062e+04
    3.3700142056e-02    9.3610867188e+04
    3.3710066229e-02    9.3602164062e+04
    3.3719986677e-02    9.3593843750e+04
    3.3730242401e-02    9.3585523438e+04
    3.3740166575e-02    9.3577476562e+04
    3.3750090748e-02    9.3569125000e+04
    3.3760011196e-02    9.3560843750e+04
    3.3769935369e-02    9.3552687500e+04
    3.3780191094e-02    9.3543812500e+04
    3.3790115267e-02    9.3534750000e+04
    3.3800035715e-02    9.3525750000e+04
    3.3809959888e-02    9.3516382812e+04
    3.3820215613e-02    9.3506289062e+04
    3.3830139786e-02    9.3496476562e+04
    3.3840063959e-02    9.3486664062e+04
    3.3849988133e-02    9.3476523438e+04
    3.3859912306e-02    9.3466570312e+04
    3.3870171756e-02    9.3455945312e+04
    3.3880095929e-02    9.3445656250e+04
    3.3890023828e-02    9.3434601562e+04
    3.3899951726e-02    9.3423820312e+04
    3.3910211176e-02    9.3412851562e+04
    3.3920139074e-02    9.3402460938e+04
    3.3930070698e-02    9.3393414062e+04
    3.3939998597e-02    9.3384523438e+04
    3.3949926496e-02    9.3375273438e+04
    3.3960189670e-02    9.3365914062e+04
    3.3970121294e-02    9.3356898438e+04
    3.3980052918e-02    9.3347835938e+04
    3.3989984542e-02    9.3338320312e+04
    3.3999916166e-02    9.3329039062e+04
    3.4010179341e-02    9.3319664062e+04
    3.4020114690e-02    9.3310476562e+04
    3.4030050039e-02    9.3301351562e+04
    3.4039985389e-02    9.3292429688e+04
    3.4049920738e-02    9.3283710938e+04
    3.4060187638e-02    9.3275039062e+04
    3.4070126712e-02    9.3266937500e+04
    3.4080062062e-02    9.3258851562e+04
    3.4090001136e-02    9.3250914062e+04
    3.4099936485e-02    9.3243304688e+04
    3.4109875560e-02    9.3236242188e+04
    3.4120146185e-02    9.3228898438e+04
    3.4130081534e-02    9.3221820312e+04
    3.4140020609e-02    9.3214742188e+04
    3.4149959683e-02    9.3207398438e+04
    3.4159895033e-02    9.3199445312e+04
    3.4170165658e-02    9.3191398438e+04
    3.4180104733e-02    9.3183085938e+04
    3.4190040082e-02    9.3174781250e+04
    3.4199979156e-02    9.3166226562e+04
    3.4209918231e-02    9.3157726562e+04
    3.4219861031e-02    9.3149281250e+04
    3.4230131656e-02    9.3140250000e+04
    3.4240070730e-02    9.3131593750e+04
    3.4250009805e-02    9.3122992188e+04
    3.4259952605e-02    9.3114460938e+04
    3.4269891679e-02    9.3105835938e+04
    3.4280166030e-02    9.3097179688e+04
    3.4290108830e-02    9.3088851562e+04
    3.4300051630e-02    9.3080617188e+04
    3.4309990704e-02    9.3072398438e+04
    3.4319933504e-02    9.3064429688e+04
    3.4329876304e-02    9.3056804688e+04
    3.4340150654e-02    9.3049054688e+04
    3.4350093454e-02    9.3041367188e+04
    3.4360036254e-02    9.3033968750e+04
    3.4369979054e-02    9.3026500000e+04
    3.4379921854e-02    9.3019023438e+04
    3.4389864653e-02    9.3011351562e+04
    3.4400139004e-02    9.3003351562e+04
    3.4410081804e-02    9.2995914062e+04
    3.4420028329e-02    9.2988007812e+04
    3.4429971129e-02    9.2979906250e+04
    3.4439917654e-02    9.2970687500e+04
    3.4449860454e-02    9.2960945312e+04
    3.4460138530e-02    9.2951070312e+04
    3.4470081329e-02    9.2941507812e+04
    3.4480027854e-02    9.2931570312e+04
    3.4489974380e-02    9.2921773438e+04
    3.4499917179e-02    9.2912039062e+04
    3.4509863704e-02    9.2903210938e+04
    3.4520138055e-02    9.2894523438e+04
    3.4530084580e-02    9.2887210938e+04
    3.4540027380e-02    9.2881000000e+04
    3.4549973905e-02    9.2875343750e+04
    3.4559920430e-02    9.2869851562e+04
    3.4569866955e-02    9.2864023438e+04
    3.4579809755e-02    9.2858851562e+04
    3.4590087831e-02    9.2853148438e+04
    3.4600034356e-02    9.2847414062e+04
    3.4609980881e-02    9.2841250000e+04
    3.4619927406e-02    9.2834945312e+04
    3.4629873931e-02    9.2828281250e+04
    3.4639820457e-02    9.2821210938e+04
    3.4650098532e-02    9.2813687500e+04
    3.4660045058e-02    9.2806492188e+04
    3.4669995308e-02    9.2799164062e+04
    3.4679941833e-02    9.2791898438e+04
    3.4689892083e-02    9.2784187500e+04
    3.4699842334e-02    9.2776898438e+04
    3.4710120410e-02    9.2769710938e+04
    3.4720070660e-02    9.2763007812e+04
    3.4730020911e-02    9.2756023438e+04
    3.4739971161e-02    9.2748664062e+04
    3.4749921411e-02    9.2741750000e+04
    3.4759875387e-02    9.2734335938e+04
    3.4769825637e-02    9.2727039062e+04
    3.4780111164e-02    9.2719492188e+04
    3.4790065140e-02    9.2711882812e+04
    3.4800019115e-02    9.2704367188e+04
    3.4809973091e-02    9.2696585938e+04
    3.4819927067e-02    9.2688804688e+04
    3.4829881042e-02    9.2681132812e+04
    3.4839835018e-02    9.2674039062e+04
    3.4849788994e-02    9.2667437500e+04
    3.4860074520e-02    9.2660679688e+04
    3.4870028496e-02    9.2654617188e+04
    3.4879982471e-02    9.2648468750e+04
    3.4889936447e-02    9.2642398438e+04
    3.4899890423e-02    9.2636164062e+04
    3.4909844398e-02    9.2629914062e+04
    3.4919798374e-02    9.2623867188e+04
    3.4930087626e-02    9.2617445312e+04
    3.4940041602e-02    9.2610851562e+04
    3.4949995577e-02    9.2604085938e+04
    3.4959953278e-02    9.2597085938e+04
    3.4969907254e-02    9.2590062500e+04
    3.4979864955e-02    9.2582835938e+04
    3.4989818931e-02    9.2575523438e+04
    3.4999776632e-02    9.2568062500e+04
endcurve
