Curveplot
LS-DYNA keyword deck by LS-PrePost                          
Time
Pressure
Defined Connection
Pressure @ 1 #pts=12001
* Minval=     6.4682519531e+02 at time=         0.0013797097
* Maxval=     2.8298617500e+06 at time=         0.0003499947
    0.0000000000e+00    1.0120000000e+05
    9.9485287137e-06    1.0120000000e+05
    1.9969695131e-05    1.0120000000e+05
    2.9941180401e-05    1.0120000000e+05
    3.9987888158e-05    1.0120000000e+05
    4.9977170420e-05    1.0120000000e+05
    5.9985064581e-05    1.0120000000e+05
    6.9963964052e-05    1.0120000000e+05
    7.9969249782e-05    1.0120000000e+05
    8.9973415015e-05    1.0120000000e+05
    9.9957724160e-05    1.0120000000e+05
    1.0997891513e-04    1.0120000000e+05
    1.1993857333e-04    1.0120000000e+05
    1.2998285820e-04    1.0120000000e+05
    1.3993016910e-04    1.0120000000e+05
    1.4993427612e-04    1.0120000000e+05
    1.5998474555e-04    1.0120000000e+05
    1.6997820057e-04    1.0120000000e+05
    1.7999058764e-04    1.0120000000e+05
    1.8991051184e-04    1.0120000000e+05
    1.9999610959e-04    1.0120000000e+05
    2.0994483202e-04    1.0120000000e+05
    2.1994672716e-04    1.0120000000e+05
    2.2999955399e-04    1.0120000000e+05
    2.3999923724e-04    1.0120000000e+05
    2.4993962143e-04    1.0120000000e+05
    2.5992051815e-04    1.0120000000e+05
    2.6994041400e-04    1.0120000000e+05
    2.7999765007e-04    1.0120000000e+05
    2.8998014750e-04    1.0120000000e+05
    2.9999378603e-04    1.0120000000e+05
    3.0992412940e-04    1.0120000000e+05
    3.1999460771e-04    1.0120000000e+05
    3.2997422386e-04    1.0120000000e+05
    3.3997470746e-04    1.0120000781e+05
    3.4999471973e-04    2.8298617500e+06
    3.5991010373e-04    2.5858645000e+06
    3.6996137351e-04    2.3679877500e+06
    3.7990143755e-04    2.1774180000e+06
    3.8997663069e-04    2.0056486250e+06
    3.9993293467e-04    1.8561423750e+06
    4.0989372064e-04    1.7246311250e+06
    4.1998876259e-04    1.6079005000e+06
    4.2995327385e-04    1.5051615000e+06
    4.3991548591e-04    1.3958335000e+06
    4.4987327419e-04    1.2006073750e+06
    4.5996322297e-04    1.0286303125e+06
    4.6990628471e-04    8.8513631250e+05
    4.7997973161e-04    7.6354468750e+05
    4.8989726929e-04    6.6295493750e+05
    4.9994367873e-04    5.7657918750e+05
    5.0997309154e-04    5.0347153125e+05
    5.1998248091e-04    2.1395894531e+04
    5.2996800514e-04    1.7323982422e+04
    5.3992529865e-04    1.6454183594e+04
    5.4985680617e-04    1.5625065430e+04
    5.5991369300e-04    1.4825660156e+04
    5.6993850740e-04    1.4068715820e+04
    5.7992764050e-04    1.3354213867e+04
    5.8987765806e-04    1.2682444336e+04
    5.9995101765e-04    1.2042730469e+04
    6.0998200206e-04    1.1444737305e+04
    6.1996671138e-04    1.0886023438e+04
    6.2990124570e-04    1.0363518555e+04
    6.3995597884e-04    9.8654189453e+03
    6.4995157300e-04    9.3980166016e+03
    6.5988808637e-04    8.9589433594e+03
    6.6994864028e-04    8.5391640625e+03
    6.7994679557e-04    8.1454355469e+03
    6.8987818668e-04    7.7758032227e+03
    6.9992610952e-04    7.4218964844e+03
    7.0990301901e-04    7.0892690430e+03
    7.1999646025e-04    6.7709721680e+03
    7.2982115671e-04    6.4778344727e+03
    7.3995394632e-04    6.1914848633e+03
    7.4980896898e-04    5.9272788086e+03
    7.5997633394e-04    5.6683491211e+03
    7.6985690976e-04    5.4291801758e+03
    7.7984953532e-04    5.1990942383e+03
    7.8995618969e-04    4.9778354492e+03
    7.9996942077e-04    4.7694248047e+03
    8.0988474656e-04    4.5731210938e+03
    8.1991078332e-04    4.3842773438e+03
    8.2983419998e-04    4.2064091797e+03
    8.3986850223e-04    4.0351972656e+03
    8.4979436360e-04    3.8739226074e+03
    8.5983140161e-04    3.7185720215e+03
    8.6998136248e-04    3.5689504395e+03
    8.7978813099e-04    3.4311462402e+03
    8.8993617101e-04    3.2951726074e+03
    8.9996331371e-04    3.1670852051e+03
    9.0986600844e-04    3.0463837891e+03
    9.1987941414e-04    2.9298825684e+03
    9.2976278393e-04    2.8200849609e+03
    9.3999964884e-04    2.7115153809e+03
    9.4985764008e-04    2.6116708984e+03
    9.5982692437e-04    2.5151545410e+03
    9.6990499878e-04    2.4219089355e+03
    9.7984215245e-04    2.3340092773e+03
    9.8988949321e-04    2.2490134277e+03
    9.9978758954e-04    2.1689023438e+03
    1.0097955819e-03    2.0913789062e+03
    1.0199155658e-03    2.0163656006e+03
    1.0298797861e-03    1.9456656494e+03
    1.0399563471e-03    1.8771986084e+03
    1.0498693446e-03    1.8126733398e+03
    1.0598937515e-03    1.7501392822e+03
    1.0697483085e-03    1.6912025146e+03
    1.0799989104e-03    1.6324383545e+03
    1.0897893226e-03    1.5786176758e+03
    1.0999812512e-03    1.5248685303e+03
    1.1099949479e-03    1.4742181396e+03
    1.1198237771e-03    1.4264871826e+03
    1.1297629680e-03    1.3801251221e+03
    1.1398151983e-03    1.3350971680e+03
    1.1499833781e-03    1.2913651123e+03
    1.1599573772e-03    1.2501607666e+03
    1.1697292794e-03    1.2113438721e+03
    1.1799322674e-03    1.1723801270e+03
    1.1899318779e-03    1.1356760254e+03
    1.1997201946e-03    1.1011059570e+03
    1.2099505402e-03    1.0663438721e+03
    1.2199648190e-03    1.0336173096e+03
    1.2297568610e-03    1.0028040161e+03
    1.2396682287e-03    9.7275933838e+02
    1.2496961281e-03    9.4348175049e+02
    1.2598442845e-03    9.1495159912e+02
    1.2697594939e-03    8.8809698486e+02
    1.2797933305e-03    8.6190496826e+02
    1.2899487047e-03    8.3635943604e+02
    1.2998600723e-03    8.1232415771e+02
    1.3098918134e-03    7.8886114502e+02
    1.3196684886e-03    7.6679510498e+02
    1.3299463317e-03    7.4441583252e+02
    1.3399673626e-03    7.2336932373e+02
    1.3497211039e-03    7.0358715820e+02
    1.3599918457e-03    6.8347564697e+02
    1.3699888950e-03    6.6457977295e+02
    1.3797096908e-03    6.4682519531e+02
    1.3899618061e-03    2.1515984375e+04
    1.3999330113e-03    3.3800429688e+04
    1.4096094528e-03    3.3885621094e+04
    1.4198371209e-03    3.3976945312e+04
    1.4297673479e-03    3.4072777344e+04
    1.4397958294e-03    3.4175929688e+04
    1.4498921810e-03    3.4284847656e+04
    1.4595950488e-03    3.4394406250e+04
    1.4697978040e-03    3.4516234375e+04
    1.4795775060e-03    3.4636859375e+04
    1.4897924848e-03    3.4765593750e+04
    1.4995950041e-03    3.4894832031e+04
    1.5098267468e-03    3.5032824219e+04
    1.5196276363e-03    3.5169640625e+04
    1.5298585640e-03    3.5315558594e+04
    1.5396281378e-03    3.5457832031e+04
    1.5498658177e-03    3.5610921875e+04
    1.5596385347e-03    3.5759238281e+04
    1.5698286006e-03    3.5914433594e+04
    1.5795653453e-03    3.6067046875e+04
    1.5897594858e-03    3.6229480469e+04
    1.5999472234e-03    3.6393886719e+04
    1.6096977051e-03    3.6553148438e+04
    1.6199271195e-03    3.6723867188e+04
    1.6297253314e-03    3.6887878906e+04
    1.6395867569e-03    3.7055578125e+04
    1.6499109333e-03    3.7233328125e+04
    1.6598240472e-03    3.7406492188e+04
    1.6697612591e-03    3.7580984375e+04
    1.6797097633e-03    3.7756472656e+04
    1.6896639718e-03    3.7933144531e+04
    1.6996208578e-03    3.8110925781e+04
    1.7095723888e-03    3.8289824219e+04
    1.7199713038e-03    3.8478214844e+04
    1.7298647435e-03    3.8657816406e+04
    1.7397281481e-03    3.8838328125e+04
    1.7499673413e-03    3.9026039062e+04
    1.7596847611e-03    3.9204757812e+04
    1.7697402509e-03    3.9390562500e+04
    1.7796885222e-03    3.9575910156e+04
    1.7899577506e-03    3.9768171875e+04
    1.7996943789e-03    3.9951160156e+04
    1.8097477732e-03    4.0140996094e+04
    1.8196935998e-03    4.0329730469e+04
    1.8299430376e-03    4.0524992188e+04
    1.8396772211e-03    4.0711035156e+04
    1.8497101264e-03    4.0903656250e+04
    1.8596358132e-03    4.1095121094e+04
    1.8698469503e-03    4.1293140625e+04
    1.8799459795e-03    4.1489726562e+04
    1.8899351126e-03    4.1684679688e+04
    1.8998155138e-03    4.1877925781e+04
    1.9099635538e-03    4.2077078125e+04
    1.9199982053e-03    4.2274593750e+04
    1.9299216801e-03    4.2469992188e+04
    1.9397356082e-03    4.2663640625e+04
    1.9497985486e-03    4.2863531250e+04
    1.9597464707e-03    4.3061648438e+04
    1.9699302502e-03    4.3263871094e+04
    1.9799934234e-03    4.3464003906e+04
    1.9899383187e-03    4.3662996094e+04
    1.9997654017e-03    4.3860207031e+04
    2.0098092500e-03    4.4061839844e+04
    2.0197301637e-03    4.4261207031e+04
    2.0298536401e-03    4.4465468750e+04
    2.0398476627e-03    4.4667949219e+04
    2.0497138612e-03    4.4868140625e+04
    2.0597644616e-03    4.5071261719e+04
    2.0699880552e-03    4.5277910156e+04
    2.0797655452e-03    4.5477058594e+04
    2.0897090435e-03    4.5680796875e+04
    2.0998055115e-03    4.5887832031e+04
    2.1097525023e-03    4.6091769531e+04
    2.1198356990e-03    4.6298707031e+04
    2.1297605708e-03    4.6502214844e+04
    2.1398034878e-03    4.6708468750e+04
    2.1499500144e-03    4.6918105469e+04
    2.1599184256e-03    4.7124640625e+04
    2.1699697245e-03    4.7332371094e+04
    2.1798308007e-03    4.7536019531e+04
    2.1897517145e-03    4.7741722656e+04
    2.1999606397e-03    4.7954378906e+04
    2.2099409252e-03    4.8161332031e+04
    2.2199233063e-03    4.8369300781e+04
    2.2298854310e-03    4.8579871094e+04
    2.2398028523e-03    4.8783437500e+04
    2.2498641629e-03    4.8990691406e+04
    2.2598090582e-03    4.9211558594e+04
    2.2698023822e-03    4.9419925781e+04
    2.2799677681e-03    4.9610191406e+04
    2.2898351308e-03    4.9826550781e+04
    2.2998470813e-03    5.0069203125e+04
    2.3099589162e-03    5.0277917969e+04
    2.3199783172e-03    5.0459628906e+04
    2.3299821187e-03    5.0658207031e+04
    2.3399339989e-03    5.0878136719e+04
    2.3499962408e-03    5.1107812500e+04
    2.3598594125e-03    5.1327859375e+04
    2.3699596059e-03    5.1536839844e+04
    2.3799848277e-03    5.1737917969e+04
    2.3898538202e-03    5.1942484375e+04
    2.3998087272e-03    5.2153167969e+04
    2.4099536240e-03    5.2367105469e+04
    2.4199727923e-03    5.2577988281e+04
    2.4299796205e-03    5.2789394531e+04
    2.4399603717e-03    5.2997082031e+04
    2.4499536958e-03    5.3210589844e+04
    2.4599500466e-03    5.3423878906e+04
    2.4698206689e-03    5.3643156250e+04
    2.4799634703e-03    5.3865097656e+04
    2.4898578413e-03    5.4072000000e+04
    2.4999666493e-03    5.4274449219e+04
    2.5098139886e-03    5.4474019531e+04
    2.5199309457e-03    5.4694121094e+04
    2.5299158879e-03    5.4914355469e+04
    2.5397937279e-03    5.5126730469e+04
    2.5499642361e-03    5.5337574219e+04
    2.5597754866e-03    5.5535406250e+04
    2.5698877871e-03    5.5752988281e+04
    2.5798382703e-03    5.5976199219e+04
    2.5898688473e-03    5.6181160156e+04
    2.5999529753e-03    5.6382417969e+04
    2.6098729577e-03    5.6603421875e+04
    2.6198558044e-03    5.6820707031e+04
    2.6298887096e-03    5.7018816406e+04
    2.6399891358e-03    5.7234562500e+04
    2.6499012019e-03    5.7455355469e+04
    2.6598642580e-03    5.7653250000e+04
    2.6698834263e-03    5.7859886719e+04
    2.6799400803e-03    5.8085894531e+04
    2.6898009237e-03    5.8282324219e+04
    2.6999590918e-03    5.8493050781e+04
    2.7098981664e-03    5.8712683594e+04
    2.7198926546e-03    5.8910417969e+04
    2.7299218345e-03    5.9124644531e+04
    2.7399822138e-03    5.9338687500e+04
    2.7498430572e-03    5.9536878906e+04
    2.7599825989e-03    5.9754953125e+04
    2.7699102648e-03    5.9958777344e+04
    2.7798730880e-03    6.0165457031e+04
    2.7898531407e-03    6.0375417969e+04
    2.7998674195e-03    6.0577246094e+04
    2.8099210467e-03    6.0789437500e+04
    2.8199844528e-03    6.1001144531e+04
    2.8298364487e-03    6.1209308594e+04
    2.8399706353e-03    6.1419515625e+04
    2.8498466127e-03    6.1620011719e+04
    2.8597610071e-03    6.1823000000e+04
    2.8699573595e-03    6.2030097656e+04
    2.8799031861e-03    6.2233144531e+04
    2.8898755554e-03    6.2436250000e+04
    2.8998579364e-03    6.2640675781e+04
    2.9098428786e-03    6.2845890625e+04
    2.9198504053e-03    6.3052332031e+04
    2.9298649170e-03    6.3259253906e+04
    2.9398798943e-03    6.3464777344e+04
    2.9499062803e-03    6.3668019531e+04
    2.9599338304e-03    6.3868816406e+04
    2.9699548613e-03    6.4069722656e+04
    2.9799914919e-03    6.4273332031e+04
    2.9897596687e-03    6.4472941406e+04
    2.9997795355e-03    6.4676011719e+04
    3.0098222196e-03    6.4877230469e+04
    3.0198525637e-03    6.5078265625e+04
    3.0298817437e-03    6.5280062500e+04
    3.0399337411e-03    6.5481875000e+04
    3.0499703716e-03    6.5682125000e+04
    3.0597492587e-03    6.5877335938e+04
    3.0698226765e-03    6.6078460938e+04
    3.0798821244e-03    6.6278773438e+04
    3.0899469275e-03    6.6478429688e+04
    3.0997905415e-03    6.6673531250e+04
    3.1098742038e-03    6.6873507812e+04
    3.1199723016e-03    6.7073023438e+04
    3.1298391987e-03    6.7267781250e+04
    3.1399726868e-03    6.7467343750e+04
    3.1498407479e-03    6.7661562500e+04
    3.1599986833e-03    6.7861265625e+04
    3.1699081883e-03    6.8055468750e+04
    3.1798225828e-03    6.8249359375e+04
    3.1897530425e-03    6.8443125000e+04
    3.1999594066e-03    6.8642750000e+04
    3.2099201344e-03    6.8837281250e+04
    3.2198962290e-03    6.9031312500e+04
    3.2298658043e-03    6.9224632812e+04
    3.2398595940e-03    6.9417992188e+04
    3.2498787623e-03    6.9612312500e+04
    3.2598928083e-03    6.9806070312e+04
    3.2699177973e-03    6.9999359375e+04
    3.2799583860e-03    7.0192898438e+04
    3.2897533383e-03    7.0381812500e+04
    3.2998174429e-03    7.0576054688e+04
    3.3098841086e-03    7.0769703125e+04
    3.3199819736e-03    7.0963171875e+04
    3.3298193011e-03    7.1151820312e+04
    3.3399257809e-03    7.1345765625e+04
    3.3497686964e-03    7.1535031250e+04
    3.3599063754e-03    7.1730000000e+04
    3.3697858453e-03    7.1919679688e+04
    3.3799330704e-03    7.2114718750e+04
    3.3898097463e-03    7.2305117188e+04
    3.3999953885e-03    7.2502507812e+04
    3.4099090844e-03    7.2696242188e+04
    3.4198216163e-03    7.2891070312e+04
    3.4297404345e-03    7.3087171875e+04
    3.4399628639e-03    7.3290656250e+04
    3.4499093890e-03    7.3490835938e+04
    3.4598568454e-03    7.3694218750e+04
    3.4698082600e-03    7.3900421875e+04
    3.4797897097e-03    7.4108656250e+04
    3.4897674341e-03    7.4318757812e+04
    3.4997418988e-03    7.4531796875e+04
    3.5097307991e-03    7.4748250000e+04
    3.5197427496e-03    7.4967960938e+04
    3.5297514405e-03    7.5189289062e+04
    3.5397538450e-03    7.5411125000e+04
    3.5497776698e-03    7.5633062500e+04
    3.5598103423e-03    7.5854437500e+04
    3.5698509309e-03    7.6076476562e+04
    3.5798870958e-03    7.6299953125e+04
    3.5899458453e-03    7.6524851562e+04
    3.5997277591e-03    7.6743570312e+04
    3.6097755656e-03    7.6968210938e+04
    3.6198138259e-03    7.7193132812e+04
    3.6298895720e-03    7.7420000000e+04
    3.6399867386e-03    7.7648328125e+04
    3.6498035770e-03    7.7871054688e+04
    3.6598953884e-03    7.8101023438e+04
    3.6699827760e-03    7.8332132812e+04
    3.6797947250e-03    7.8558140625e+04
    3.6898867693e-03    7.8791445312e+04
    3.6999827716e-03    7.9025171875e+04
    3.7098044995e-03    7.9252882812e+04
    3.7199098151e-03    7.9488421875e+04
    3.7297336385e-03    7.9719453125e+04
    3.7398366258e-03    7.9959218750e+04
    3.7499379832e-03    8.0200539062e+04
    3.7597580813e-03    8.0436093750e+04
    3.7698575761e-03    8.0679414062e+04
    3.7799556740e-03    8.0924351562e+04
    3.7897743750e-03    8.1164585938e+04
    3.7998757325e-03    8.1413796875e+04
    3.8099770900e-03    8.1664828125e+04
    3.8197943941e-03    8.1910648438e+04
    3.8298936561e-03    8.2165789062e+04
    3.8399975747e-03    8.2423679688e+04
    3.8498258218e-03    8.2677140625e+04
    3.8599334657e-03    8.2940445312e+04
    3.8697645068e-03    8.3198945312e+04
    3.8798884489e-03    8.3467687500e+04
    3.8897390477e-03    8.3732054688e+04
    3.8998727687e-03    8.4007179688e+04
    3.9097242989e-03    8.4277968750e+04
    3.9198556915e-03    8.4560132812e+04
    3.9299884811e-03    8.4846210938e+04
    3.9398367517e-03    8.5127804688e+04
    3.9499662817e-03    8.5421406250e+04
    3.9598229341e-03    8.5712648438e+04
    3.9699706249e-03    8.6019179688e+04
    3.9798384532e-03    8.6321296875e+04
    3.9899870753e-03    8.6631625000e+04
    3.9998525754e-03    8.6933570312e+04
    4.0099993348e-03    8.7252703125e+04
    4.0198643692e-03    8.7578562500e+04
    4.0297284722e-03    8.7950382812e+04
    4.0398794226e-03    1.6483451562e+05
    4.0497514419e-03    1.8241420312e+05
    4.0599042550e-03    1.8090631250e+05
    4.0697730146e-03    1.7966279688e+05
    4.0799230337e-03    1.7838092188e+05
    4.0897936560e-03    1.7716648438e+05
    4.0999506600e-03    1.7592860938e+05
    4.1098240763e-03    1.7475264062e+05
    4.1199787520e-03    1.7356450000e+05
    4.1298493743e-03    1.7243906250e+05
    4.1397241876e-03    1.7134546875e+05
    4.1498825885e-03    1.7024964062e+05
    4.1597574018e-03    1.6920439062e+05
    4.1699125431e-03    1.6813892188e+05
    4.1797868907e-03    1.6710892188e+05
    4.1899476200e-03    1.6606192188e+05
    4.1998247616e-03    1.6506490625e+05
    4.2099826969e-03    1.6406767188e+05
    4.2198579758e-03    1.6312890625e+05
    4.2297383770e-03    1.6221537500e+05
    4.2399000376e-03    1.6128803125e+05
    4.2497781105e-03    1.6039010938e+05
    4.2599393055e-03    1.5947598438e+05
    4.2698206380e-03    1.5860429688e+05
    4.2799832299e-03    1.5773310938e+05
    4.2898626998e-03    1.5691423438e+05
    4.2997435667e-03    1.5611470312e+05
    4.3099070899e-03    1.5529710938e+05
    4.3197874911e-03    1.5450353125e+05
    4.3299505487e-03    1.5369735938e+05
    4.3398309499e-03    1.5293187500e+05
    4.3499930762e-03    1.5217393750e+05
    4.3598720804e-03    1.5146070312e+05
    4.3697520159e-03    1.5075484375e+05
    4.3799150735e-03    1.5002609375e+05
    4.3897959404e-03    1.4931020312e+05
    4.3999580666e-03    1.4857379688e+05
    4.4098375365e-03    1.4786945312e+05
    4.4199987315e-03    1.4716273438e+05
    4.4298772700e-03    1.4649087500e+05
    4.4397553429e-03    1.4582495312e+05
    4.4499156065e-03    1.4513857812e+05
    4.4597932138e-03    1.4446321875e+05
    4.4699525461e-03    1.4376310938e+05
    4.4798296876e-03    1.4307748438e+05
    4.4899885543e-03    1.4237128125e+05
    4.4998652302e-03    1.4168534375e+05
    4.5097419061e-03    1.4099881250e+05
    4.5199007727e-03    1.4029362500e+05
    4.5297765173e-03    1.3960839062e+05
    4.5399344526e-03    1.3890515625e+05
    4.5498115942e-03    1.3822334375e+05
    4.5599704608e-03    1.3752546875e+05
    4.5698457398e-03    1.3685098438e+05
    4.5797191560e-03    1.3618154688e+05
    4.5898812823e-03    1.3549775000e+05
    4.5997668058e-03    1.3483798438e+05
    4.6099363826e-03    1.3416321875e+05
    4.6198195778e-03    1.3350978125e+05
    4.6299886890e-03    1.3283784375e+05
    4.6398914419e-03    1.3218362500e+05
    4.6497974545e-03    1.3152912500e+05
    4.6599861234e-03    1.3085790625e+05
    4.6698912047e-03    1.3020871094e+05
    4.6798139811e-03    1.2956197656e+05
    4.6897516586e-03    1.2891818750e+05
    4.6999757178e-03    1.2826017969e+05
    4.7099189833e-03    1.2762477344e+05
    4.7198776156e-03    1.2699330469e+05
    4.7298478894e-03    1.2636800000e+05
    4.7398209572e-03    1.2575075000e+05
    4.7498079948e-03    1.2514171094e+05
    4.7598048113e-03    1.2454003906e+05
    4.7698160633e-03    1.2394353125e+05
    4.7798296437e-03    1.2335096094e+05
    4.7898441553e-03    1.2276158594e+05
    4.7998810187e-03    1.2217756250e+05
    4.8099295236e-03    1.2158997656e+05
    4.8199794255e-03    1.2094116406e+05
    4.8297448084e-03    1.2009130469e+05
    4.8398068175e-03    1.1879127344e+05
    4.8498893157e-03    1.1703053125e+05
    4.8599843867e-03    1.1498503906e+05
    4.8697823659e-03    1.1290872656e+05
    4.8798741773e-03    1.1078015625e+05
    4.8899864778e-03    1.0870260156e+05
    4.8998203129e-03    1.0675086719e+05
    4.9099544995e-03    1.0481757031e+05
    4.9197957851e-03    1.0301628906e+05
    4.9299271777e-03    1.0124083594e+05
    4.9397898838e-03    9.9588914062e+04
    4.9499534070e-03    9.7966914062e+04
    4.9598338082e-03    9.6473000000e+04
    4.9697230570e-03    9.5071664062e+04
    4.9798982218e-03    9.3759039062e+04
    4.9897921272e-03    9.2681125000e+04
    4.9999947660e-03    9.2083468750e+04
    5.0099133514e-03    9.2019867188e+04
    5.0198407844e-03    9.2076531250e+04
    5.0297719426e-03    9.1947335938e+04
    5.0399880856e-03    9.1494875000e+04
    5.0499290228e-03    9.1115710938e+04
    5.0598876551e-03    9.0856898438e+04
    5.0698458217e-03    9.0618664062e+04
    5.0798123702e-03    9.0333273438e+04
    5.0897784531e-03    9.0037687500e+04
    5.0997468643e-03    8.9765210938e+04
    5.1097399555e-03    8.9501585938e+04
    5.1197344437e-03    8.9237601562e+04
    5.1297256723e-03    8.8982625000e+04
    5.1397331990e-03    8.8741507812e+04
    5.1497379318e-03    8.8505468750e+04
    5.1597561687e-03    8.8265601562e+04
    5.1697939634e-03    8.8026812500e+04
    5.1798187196e-03    8.7798804688e+04
    5.1898527890e-03    8.7583101562e+04
    5.1999036223e-03    8.7367804688e+04
    5.2099484019e-03    8.7140640625e+04
    5.2197198384e-03    8.6916773438e+04
    5.2297883667e-03    8.6702375000e+04
    5.2398461848e-03    8.6511945312e+04
    5.2499263547e-03    8.6337304688e+04
    5.2597206086e-03    8.6170046875e+04
    5.2698100917e-03    8.5988664062e+04
    5.2799186669e-03    8.5796492188e+04
    5.2897208370e-03    8.5608906250e+04
    5.2998154424e-03    8.5423195312e+04
    5.3099403158e-03    8.5248203125e+04
    5.3197732195e-03    8.5088632812e+04
    5.3299046122e-03    8.4931406250e+04
    5.3397556767e-03    8.4780289062e+04
    5.3498847410e-03    8.4625046875e+04
    5.3597227670e-03    8.4476484375e+04
    5.3698928095e-03    8.4328960938e+04
    5.3797527216e-03    8.4191664062e+04
    5.3899218328e-03    8.4052796875e+04
    5.3998059593e-03    8.3918546875e+04
    5.4099680856e-03    8.3782046875e+04
    5.4198512807e-03    8.3653406250e+04
    5.4297540337e-03    8.3528351562e+04
    5.4399496876e-03    8.3402078125e+04
    5.4498598911e-03    8.3278445312e+04
    5.4597794078e-03    8.3150703125e+04
    5.4699820466e-03    8.3017859375e+04
    5.4799034260e-03    8.2894765625e+04
    5.4898420349e-03    8.2780117188e+04
    5.4997666739e-03    8.2673531250e+04
    5.5097173899e-03    8.2570882812e+04
    5.5199707858e-03    8.2462414062e+04
    5.5299177766e-03    8.2351078125e+04
    5.5398880504e-03    8.2237781250e+04
    5.5498564616e-03    8.2127429688e+04
    5.5598253384e-03    8.2021828125e+04
    5.5698100477e-03    8.1921945312e+04
    5.5797989480e-03    8.1826960938e+04
    5.5897822604e-03    8.1730218750e+04
    5.5997907184e-03    8.1626117188e+04
    5.6097963825e-03    8.1520570312e+04
    5.6198043749e-03    8.1424953125e+04
    5.6298347190e-03    8.1337187500e+04
    5.6398608722e-03    8.1246132812e+04
    5.6498921476e-03    8.1145226562e+04
    5.6599355303e-03    8.1045507812e+04
    5.6699737906e-03    8.0957734375e+04
    5.6797210127e-03    8.0876773438e+04
    5.6897918694e-03    8.0785554688e+04
    5.6998631917e-03    8.0687828125e+04
    5.7099345140e-03    8.0597789062e+04
    5.7197147980e-03    8.0517890625e+04
    5.7297903113e-03    8.0431703125e+04
    5.7398825884e-03    8.0338828125e+04
    5.7499916293e-03    8.0251687500e+04
    5.7597975247e-03    8.0175257812e+04
    5.7699196041e-03    8.0092273438e+04
    5.7797413319e-03    8.0004171875e+04
    5.7898638770e-03    7.9919492188e+04
    5.7999924757e-03    7.9839148438e+04
    5.8098323643e-03    7.9755648438e+04
    5.8199814521e-03    7.9667523438e+04
    5.8298390359e-03    7.9587640625e+04
    5.8397017419e-03    7.9508125000e+04
    5.8498745784e-03    7.9421757812e+04
    5.8597428724e-03    7.9339289062e+04
    5.8699296787e-03    7.9256726562e+04
    5.8798105456e-03    7.9175117188e+04
    5.8897053823e-03    7.9093257812e+04
    5.8999196626e-03    7.9011257812e+04
    5.9098266065e-03    7.8930265625e+04
    5.9197451919e-03    7.8845085938e+04
    5.9299762361e-03    7.8755968750e+04
    5.9399059974e-03    7.8669289062e+04
    5.9498380870e-03    7.8583078125e+04
    5.9597804211e-03    7.8499312500e+04
    5.9697204269e-03    7.8417195312e+04
    5.9799901210e-03    7.8331968750e+04
    5.9899492189e-03    7.8248250000e+04
    5.9999218211e-03    7.8163835938e+04
    6.0099065304e-03    7.8078398438e+04
    6.0199056752e-03    7.7992734375e+04
    6.0299113393e-03    7.7907585938e+04
    6.0399160720e-03    7.7821718750e+04
    6.0499180108e-03    7.7734687500e+04
    6.0599274002e-03    7.7646921875e+04
    6.0699419118e-03    7.7559445312e+04
    6.0799587518e-03    7.7472617188e+04
    6.0899858363e-03    7.7385554688e+04
    6.0997018591e-03    7.7300429688e+04
    6.1097373255e-03    7.7211804688e+04
    6.1197727919e-03    7.7123859375e+04
    6.1298147775e-03    7.7037601562e+04
    6.1398721300e-03    7.6951125000e+04
    6.1499509029e-03    7.6862468750e+04
    6.1597242020e-03    7.6774843750e+04
    6.1698164791e-03    7.6684718750e+04
    6.1799120158e-03    7.6596382812e+04
    6.1896853149e-03    7.6511546875e+04
    6.1997729354e-03    7.6423125000e+04
    6.2098698691e-03    7.6333148438e+04
    6.2199789099e-03    7.6243078125e+04
    6.2297875993e-03    7.6156609375e+04
    6.2399180606e-03    7.6068007812e+04
    6.2497369945e-03    7.5982148438e+04
    6.2598702498e-03    7.5892898438e+04
    6.2696840614e-03    7.5806015625e+04
    6.2798135914e-03    7.5716203125e+04
    6.2899496406e-03    7.5626742188e+04
    6.2997853383e-03    7.5540484375e+04
    6.3099432737e-03    7.5451390625e+04
    6.3197892159e-03    7.5364859375e+04
    6.3299559988e-03    7.5275679688e+04
    6.3398010097e-03    7.5189718750e+04
    6.3499626704e-03    7.5101289062e+04
    6.3598090783e-03    7.5015695312e+04
    6.3699842431e-03    7.4927195312e+04
    6.3798571937e-03    7.4841351562e+04
    6.3897348009e-03    7.4755968750e+04
    6.3999351114e-03    7.4668437500e+04
    6.4098178409e-03    7.4583664062e+04
    6.4197005704e-03    7.4499359375e+04
    6.4298929647e-03    7.4412695312e+04
    6.4397696406e-03    7.4328046875e+04
    6.4499736764e-03    7.4240085938e+04
    6.4598657191e-03    7.4155250000e+04
    6.4697610214e-03    7.4072039062e+04
    6.4799762331e-03    7.3988203125e+04
    6.4898747951e-03    7.3907257812e+04
    6.4997738227e-03    7.3824679688e+04
    6.5099913627e-03    7.3738109375e+04
    6.5198871307e-03    7.3654828125e+04
    6.5297805704e-03    7.3573609375e+04
    6.5399929881e-03    7.3491492188e+04
    6.5498882905e-03    7.3411859375e+04
    6.5597845241e-03    7.3330984375e+04
    6.5696835518e-03    7.3249953125e+04
    6.5798987634e-03    7.3168054688e+04
    6.5897977911e-03    7.3089328125e+04
    6.5996944904e-03    7.3010093750e+04
    6.6099097021e-03    7.2928921875e+04
    6.6198115237e-03    7.2851171875e+04
    6.6297156736e-03    7.2774132812e+04
    6.6399397328e-03    7.2695539062e+04
    6.6498420201e-03    7.2619250000e+04
    6.6597545519e-03    7.2542773438e+04
    6.6699893214e-03    7.2463882812e+04
    6.6799032502e-03    7.2387570312e+04
    6.6898297518e-03    7.2311976562e+04
    6.6997627728e-03    7.2237757812e+04
    6.7097055726e-03    7.2164875000e+04
    6.7199706100e-03    7.2090179688e+04
    6.7299180664e-03    7.2017351562e+04
    6.7398590036e-03    7.1943390625e+04
    6.7498143762e-03    7.1868781250e+04
    6.7597874440e-03    7.1794960938e+04
    6.7697619088e-03    7.1723835938e+04
    6.7797563970e-03    7.1655382812e+04
    6.7897597328e-03    7.1587960938e+04
    6.7997761071e-03    7.1519570312e+04
    6.8097934127e-03    7.1449406250e+04
    6.8198121153e-03    7.1377671875e+04
    6.8298298866e-03    7.1305273438e+04
    6.8398760632e-03    7.1233187500e+04
    6.8499459885e-03    7.1162656250e+04
    6.8596960045e-03    7.1096804688e+04
    6.8697771057e-03    7.1031234375e+04
    6.8798670545e-03    7.0967289062e+04
    6.8899639882e-03    7.0904078125e+04
    6.8997284397e-03    7.0842882812e+04
    6.9098300301e-03    7.0778578125e+04
    6.9199339487e-03    7.0713148438e+04
    6.9297221489e-03    7.0649734375e+04
    6.9398484193e-03    7.0584367188e+04
    6.9499718957e-03    7.0520046875e+04
    6.9598155096e-03    7.0458859375e+04
    6.9699170999e-03    7.0397054688e+04
    6.9799548946e-03    7.0336367188e+04
    6.9899023511e-03    7.0276335938e+04
    6.9997310638e-03    7.0217703125e+04
    7.0097898133e-03    7.0158445312e+04
    7.0196921006e-03    7.0100796875e+04
    7.0298044011e-03    7.0042046875e+04
    7.0397248492e-03    6.9984242188e+04
    7.0498380810e-03    6.9925054688e+04
    7.0597277954e-03    6.9867851562e+04
    7.0697925985e-03    6.9811304688e+04
    7.0795980282e-03    6.9757890625e+04
    7.0899911225e-03    6.9703718750e+04
    7.0996521972e-03    6.9657390625e+04
    7.1098655462e-03    6.9614945312e+04
    7.1197352372e-03    6.9581367188e+04
    7.1297013201e-03    6.9552640625e+04
    7.1397610009e-03    6.9522867188e+04
    7.1499184705e-03    6.9484335938e+04
    7.1596759371e-03    6.9436226562e+04
    7.1699735709e-03    6.9378226562e+04
    7.1798753925e-03    6.9325484375e+04
    7.1898251772e-03    6.9281179688e+04
    7.1998443455e-03    6.9243710938e+04
    7.2099510580e-03    6.9206695312e+04
    7.2196014225e-03    6.9168023438e+04
    7.2298222221e-03    6.9125593750e+04
    7.2396215983e-03    6.9087093750e+04
    7.2499439120e-03    6.9048921875e+04
    7.2598466650e-03    6.9014320312e+04
    7.2698257864e-03    6.8980125000e+04
    7.2798328474e-03    6.8946632812e+04
    7.2898543440e-03    6.8913328125e+04
    7.2995247319e-03    6.8880578125e+04
    7.3097501881e-03    6.8846265625e+04
    7.3199276812e-03    6.8813625000e+04
    7.3296786286e-03    6.8785296875e+04
    7.3395320214e-03    6.8758148438e+04
    7.3499684222e-03    6.8729320312e+04
    7.3598581366e-03    6.8700875000e+04
    7.3697972111e-03    6.8673765625e+04
    7.3797535151e-03    6.8648523438e+04
    7.3897466063e-03    6.8624679688e+04
    7.3998393491e-03    6.8601773438e+04
    7.4099539779e-03    6.8577367188e+04
    7.4195400812e-03    6.8555328125e+04
    7.4297273532e-03    6.8532773438e+04
    7.4399337173e-03    6.8512304688e+04
    7.4496529996e-03    6.8494828125e+04
    7.4599110521e-03    6.8475242188e+04
    7.4696629308e-03    6.8457320312e+04
    7.4798869900e-03    6.8440539062e+04
    7.4898866005e-03    6.8425531250e+04
    7.4999602512e-03    6.8409695312e+04
    7.5099281967e-03    6.8394734375e+04
    7.5197196566e-03    6.8380523438e+04
    7.5296917930e-03    6.8369031250e+04
    7.5396983884e-03    6.8357398438e+04
    7.5499266386e-03    6.8346937500e+04
    7.5598070398e-03    6.8336804688e+04
    7.5699430890e-03    6.8327242188e+04
    7.5799520127e-03    6.8319625000e+04
    7.5899190269e-03    6.8312281250e+04
    7.5998543762e-03    6.8306789062e+04
    7.6098456047e-03    6.8300859375e+04
    7.6199723408e-03    6.8295437500e+04
    7.6298932545e-03    6.8291898438e+04
    7.6398383826e-03    6.8288515625e+04
    7.6498608105e-03    6.8287187500e+04
    7.6598748565e-03    6.8287515625e+04
    7.6699429192e-03    6.8287765625e+04
    7.6798498631e-03    6.8289945312e+04
    7.6898429543e-03    6.8292039062e+04
    7.6998150907e-03    6.8293570312e+04
    7.7098426409e-03    6.8296726562e+04
    7.7198161744e-03    6.8300453125e+04
    7.7297971584e-03    6.8304992188e+04
    7.7399681322e-03    6.8311656250e+04
    7.7499123290e-03    6.8319625000e+04
    7.7598425560e-03    6.8328781250e+04
    7.7699576505e-03    6.8340609375e+04
    7.7797942795e-03    6.8354679688e+04
    7.7897715382e-03    6.8369593750e+04
    7.7998815104e-03    6.8384515625e+04
    7.8098718077e-03    6.8399328125e+04
    7.8199589625e-03    6.8414109375e+04
    7.8298784792e-03    6.8428554688e+04
    7.8398827463e-03    6.8443109375e+04
    7.8499419615e-03    6.8459507812e+04
    7.8598130494e-03    6.8476703125e+04
    7.8697409481e-03    6.8495085938e+04
    7.8799612820e-03    6.8515929688e+04
    7.8899767250e-03    6.8539296875e+04
    7.8997714445e-03    6.8563109375e+04
    7.9098474234e-03    6.8589718750e+04
    7.9199792817e-03    6.8617937500e+04
    7.9298671335e-03    6.8646765625e+04
    7.9397754744e-03    6.8678140625e+04
    7.9497322440e-03    6.8710921875e+04
    7.9599656165e-03    6.8746367188e+04
    7.9699512571e-03    6.8781320312e+04
    7.9799862579e-03    6.8817359375e+04
    7.9897381365e-03    6.8854085938e+04
    7.9997899011e-03    6.8892992188e+04
    8.0098854378e-03    6.8932976562e+04
    8.0199735239e-03    6.8973046875e+04
    8.0298185349e-03    6.9012437500e+04
    8.0399652943e-03    6.9053507812e+04
    8.0498391762e-03    6.9094960938e+04
    8.0597493798e-03    6.9138304688e+04
    8.0699510872e-03    6.9185078125e+04
    8.0798817798e-03    6.9232726562e+04
    8.0898432061e-03    6.9282835938e+04
    8.0998204648e-03    6.9335406250e+04
    8.1097995862e-03    6.9390203125e+04
    8.1198019907e-03    6.9446804688e+04
    8.1298211589e-03    6.9504617188e+04
    8.1398515031e-03    6.9562921875e+04
    8.1499023363e-03    6.9621695312e+04
    8.1599587575e-03    6.9680726562e+04
    8.1697441638e-03    6.9738593750e+04
    8.1798313186e-03    6.9799351562e+04
    8.1899268553e-03    6.9861820312e+04
    8.1997485831e-03    6.9924835938e+04
    8.2098618150e-03    6.9991656250e+04
    8.2199918106e-03    7.0061132812e+04
    8.2298498601e-03    7.0131007812e+04
    8.2399910316e-03    7.0204351562e+04
    8.2498639822e-03    7.0276398438e+04
    8.2597481087e-03    7.0348882812e+04
    8.2699246705e-03    7.0424062500e+04
    8.2798171788e-03    7.0497781250e+04
    8.2897208631e-03    7.0572320312e+04
    8.2999216393e-03    7.0650296875e+04
    8.3098467439e-03    7.0727796875e+04
    8.3197755739e-03    7.0807390625e+04
    8.3299912512e-03    7.0891742188e+04
    8.3399340510e-03    7.0976101562e+04
    8.3498852327e-03    7.1062070312e+04
    8.3598364145e-03    7.1148742188e+04
    8.3697922528e-03    7.1235570312e+04
    8.3797564730e-03    7.1322164062e+04
    8.3897337317e-03    7.1408609375e+04
    8.3999978378e-03    7.1497781250e+04
    8.4099760279e-03    7.1585515625e+04
    8.4199570119e-03    7.1674937500e+04
    8.4299417213e-03    7.1766546875e+04
    8.4399310872e-03    7.1860679688e+04
    8.4499176592e-03    7.1957210938e+04
    8.4599088877e-03    7.2055976562e+04
    8.4699094296e-03    7.2156437500e+04
    8.4799136966e-03    7.2257953125e+04
    8.4899198264e-03    7.2359679688e+04
    8.4999268875e-03    7.2461031250e+04
    8.5099339485e-03    7.2561703125e+04
    8.5199419409e-03    7.2661937500e+04
    8.5299499333e-03    7.2761953125e+04
    8.5399569944e-03    7.2862375000e+04
    8.5499649867e-03    7.2964031250e+04
    8.5599729791e-03    7.3067187500e+04
    8.5699819028e-03    7.3171921875e+04
    8.5799908265e-03    7.3277890625e+04
    8.5897156969e-03    7.3381703125e+04
    8.5997264832e-03    7.3489835938e+04
    8.6097382009e-03    7.3599484375e+04
    8.6197508499e-03    7.3710437500e+04
    8.6297634989e-03    7.3822156250e+04
    8.6397770792e-03    7.3934554688e+04
    8.6497915909e-03    7.4048140625e+04
    8.6598061025e-03    7.4162914062e+04
    8.6698215455e-03    7.4278546875e+04
    8.6798369884e-03    7.4395046875e+04
    8.6898524314e-03    7.4512921875e+04
    8.6998688057e-03    7.4631960938e+04
    8.7098861113e-03    7.4751656250e+04
    8.7199043483e-03    7.4872117188e+04
    8.7299244478e-03    7.4993960938e+04
    8.7399501354e-03    7.5116828125e+04
    8.7499814108e-03    7.5240273438e+04
    8.7597286329e-03    7.5361382812e+04
    8.7697617710e-03    7.5486882812e+04
    8.7797930464e-03    7.5612437500e+04
    8.7898233905e-03    7.5738460938e+04
    8.7998537347e-03    7.5865328125e+04
    8.8098831475e-03    7.5992953125e+04
    8.8199153543e-03    7.6121820312e+04
    8.8299522176e-03    7.6252187500e+04
    8.8399881497e-03    7.6383328125e+04
    8.8497381657e-03    7.6511664062e+04
    8.8597740978e-03    7.6645273438e+04
    8.8698100299e-03    7.6780218750e+04
    8.8798468933e-03    7.6916960938e+04
    8.8898837566e-03    7.7055328125e+04
    8.8999215513e-03    7.7194898438e+04
    8.9099602774e-03    7.7336000000e+04
    8.9199980721e-03    7.7478351562e+04
    8.9297490194e-03    7.7617968750e+04
    8.9397858828e-03    7.7763296875e+04
    8.9498236775e-03    7.7909843750e+04
    8.9598614722e-03    7.8058046875e+04
    8.9699001983e-03    7.8207906250e+04
    8.9799389243e-03    7.8359109375e+04
    8.9899776503e-03    7.8511218750e+04
    8.9997295290e-03    7.8659789062e+04
    9.0097682551e-03    7.8814296875e+04
    9.0198069811e-03    7.8970210938e+04
    9.0298466384e-03    7.9127226562e+04
    9.0398862958e-03    7.9284687500e+04
    9.0499259531e-03    7.9442703125e+04
    9.0599656105e-03    7.9601609375e+04
    9.0697174892e-03    7.9756492188e+04
    9.0797580779e-03    7.9916484375e+04
    9.0897977352e-03    8.0077101562e+04
    9.0998383239e-03    8.0239015625e+04
    9.1098789126e-03    8.0402156250e+04
    9.1199195012e-03    8.0566242188e+04
    9.1299600899e-03    8.0731281250e+04
    9.1397147626e-03    8.0893343750e+04
    9.1497553512e-03    8.1062750000e+04
    9.1597959399e-03    8.1235031250e+04
    9.1698374599e-03    8.1410390625e+04
    9.1798799112e-03    8.1589812500e+04
    9.1899214312e-03    8.1774640625e+04
    9.1999638826e-03    8.1965742188e+04
    9.2097194865e-03    8.2157656250e+04
    9.2197610065e-03    8.2362226562e+04
    9.2298043892e-03    8.2575007812e+04
    9.2398468405e-03    8.2796937500e+04
    9.2498902231e-03    8.3028351562e+04
    9.2599336058e-03    8.3269742188e+04
    9.2699769884e-03    8.3522179688e+04
    9.2797335237e-03    8.3779093750e+04
    9.2897769064e-03    8.4056171875e+04
    9.2998212203e-03    8.4347054688e+04
    9.3098655343e-03    8.4653593750e+04
    9.3199107796e-03    8.4977625000e+04
    9.3299560249e-03    8.5328890625e+04
    9.3397144228e-03    8.6977421875e+04
    9.3497605994e-03    1.0559175000e+05
    9.3598067760e-03    1.0492885156e+05
    9.3698529527e-03    1.0460163281e+05
    9.3798991293e-03    1.0434305469e+05
    9.3899453059e-03    1.0410299219e+05
    9.3999924138e-03    1.0387033594e+05
    9.4097526744e-03    1.0364887500e+05
    9.4197997823e-03    1.0343138281e+05
    9.4298468903e-03    1.0321994531e+05
    9.4398949295e-03    1.0301452344e+05
    9.4499429688e-03    1.0281541406e+05
    9.4599919394e-03    1.0262224219e+05
    9.4697540626e-03    1.0243964844e+05
    9.4798030332e-03    1.0225808594e+05
    9.4898529351e-03    1.0208182031e+05
    9.4999028370e-03    1.0191078125e+05
    9.5099527389e-03    1.0174435156e+05
    9.5197167248e-03    1.0158690625e+05
    9.5297675580e-03    1.0142922656e+05
    9.5398174599e-03    1.0127602344e+05
    9.5498692244e-03    1.0112716406e+05
    9.5599200577e-03    1.0098246094e+05
    9.5699718222e-03    1.0084212500e+05
    9.5797367394e-03    1.0071021094e+05
    9.5897894353e-03    1.0057866406e+05
    9.5998421311e-03    1.0045097656e+05
    9.6098957583e-03    1.0032674219e+05
    9.6199493855e-03    1.0020577344e+05
    9.6297161654e-03    1.0009113281e+05
    9.6397707239e-03    9.9976093750e+04
    9.6498243511e-03    9.9863929688e+04
    9.6598789096e-03    9.9754648438e+04
    9.6699334681e-03    9.9648500000e+04
    9.6799880266e-03    9.9545117188e+04
    9.6897566691e-03    9.9447468750e+04
    9.6998121589e-03    9.9348937500e+04
    9.7098685801e-03    9.9252335938e+04
    9.7199250013e-03    9.9161242188e+04
    9.7299823537e-03    9.9069687500e+04
    9.7397519276e-03    9.8983773438e+04
    9.7498102114e-03    9.8898523438e+04
    9.7598675638e-03    9.8815718750e+04
    9.7699258476e-03    9.8735414062e+04
    9.7799841315e-03    9.8656820312e+04
    9.7897555679e-03    9.8582507812e+04
    9.7998147830e-03    9.8508164062e+04
    9.8098739982e-03    9.8435742188e+04
    9.8199341446e-03    9.8364937500e+04
    9.8299942911e-03    9.8295710938e+04
    9.8397675902e-03    9.8229820312e+04
    9.8498277366e-03    9.8163695312e+04
    9.8598888144e-03    9.8099226562e+04
    9.8699498922e-03    9.8037023438e+04
    9.8797241226e-03    9.7979460938e+04
    9.8897861317e-03    9.7922867188e+04
    9.8998481408e-03    9.7867679688e+04
    9.9099101499e-03    9.7812656250e+04
    9.9199730903e-03    9.7757929688e+04
    9.9297491834e-03    9.7706156250e+04
    9.9398121238e-03    9.7655468750e+04
    9.9498750642e-03    9.7607226562e+04
    9.9599389359e-03    9.7560351562e+04
    9.9697159603e-03    9.7515812500e+04
    9.9797798321e-03    9.7471539062e+04
    9.9898446351e-03    9.7429023438e+04
    9.9999094382e-03    9.7388273438e+04
    1.0009975173e-02    9.7347367188e+04
    1.0019752197e-02    9.7309335938e+04
    1.0029817931e-02    9.7269914062e+04
    1.0039883666e-02    9.7234648438e+04
    1.0049950331e-02    9.7199781250e+04
    1.0059729218e-02    9.7166875000e+04
    1.0069795884e-02    9.7135398438e+04
    1.0079862550e-02    9.7105281250e+04
    1.0089929216e-02    9.7075960938e+04
    1.0099996813e-02    9.7047117188e+04
    1.0109776631e-02    9.7019187500e+04
    1.0119844228e-02    9.6990914062e+04
    1.0129912756e-02    9.6964070312e+04
    1.0139980353e-02    9.6939820312e+04
    1.0149761103e-02    9.6919023438e+04
    1.0159830563e-02    9.6899492188e+04
    1.0169899091e-02    9.6880187500e+04
    1.0179968551e-02    9.6859851562e+04
    1.0189750232e-02    9.6839226562e+04
    1.0199819691e-02    9.6818164062e+04
    1.0209889151e-02    9.6798835938e+04
    1.0219959542e-02    9.6781882812e+04
    1.0229741223e-02    9.6767335938e+04
    1.0239811614e-02    9.6753492188e+04
    1.0249882005e-02    9.6739851562e+04
    1.0259953327e-02    9.6725406250e+04
    1.0269735940e-02    9.6709835938e+04
    1.0279807262e-02    9.6692601562e+04
    1.0289878584e-02    9.6675054688e+04
    1.0299950838e-02    9.6657460938e+04
    1.0309734382e-02    9.6640156250e+04
    1.0319805704e-02    9.6621976562e+04
    1.0329877958e-02    9.6603304688e+04
    1.0339950211e-02    9.6583968750e+04
    1.0349734686e-02    9.6564148438e+04
    1.0359806940e-02    9.6543367188e+04
    1.0369880125e-02    9.6520960938e+04
    1.0379952379e-02    9.6498460938e+04
    1.0389737785e-02    9.6474835938e+04
    1.0399810970e-02    9.6450039062e+04
    1.0409884155e-02    9.6424992188e+04
    1.0419957340e-02    9.6398164062e+04
    1.0429742746e-02    9.6371664062e+04
    1.0439815931e-02    9.6344476562e+04
    1.0449890047e-02    9.6316867188e+04
    1.0459963232e-02    9.6288500000e+04
    1.0469749570e-02    9.6260523438e+04
    1.0479823686e-02    9.6230898438e+04
    1.0489897802e-02    9.6198593750e+04
    1.0499971919e-02    9.6161031250e+04
    1.0509758256e-02    9.6117281250e+04
    1.0519832373e-02    9.6064242188e+04
    1.0529907420e-02    9.6004929688e+04
    1.0539981537e-02    9.5944148438e+04
    1.0549767874e-02    9.5889039062e+04
    1.0559842922e-02    9.5839085938e+04
    1.0569917969e-02    9.5794070312e+04
    1.0579992086e-02    9.5750695312e+04
    1.0589779355e-02    9.5706937500e+04
    1.0599853471e-02    9.5658679688e+04
    1.0609928519e-02    9.5608726562e+04
    1.0619714856e-02    9.5559875000e+04
    1.0629789904e-02    9.5510976562e+04
    1.0639864951e-02    9.5461710938e+04
    1.0649939068e-02    9.5412398438e+04
    1.0659726337e-02    9.5362523438e+04
    1.0669801384e-02    9.5309585938e+04
    1.0679875501e-02    9.5255476562e+04
    1.0689950548e-02    9.5199242188e+04
    1.0699737817e-02    9.5143179688e+04
    1.0709811933e-02    9.5077343750e+04
    1.0719886981e-02    9.4972476562e+04
    1.0729962029e-02    9.4706789062e+04
    1.0739748366e-02    9.4121382812e+04
    1.0749823414e-02    9.3169789062e+04
    1.0759897530e-02    9.2055320312e+04
    1.0769972578e-02    9.0971898438e+04
    1.0779758915e-02    9.0139554688e+04
    1.0789833963e-02    8.9882718750e+04
    1.0799908079e-02    9.0151039062e+04
    1.0809982195e-02    9.0246539062e+04
    1.0819769464e-02    9.0217468750e+04
    1.0829843581e-02    9.0265523438e+04
    1.0839917697e-02    9.0289195312e+04
    1.0849992745e-02    9.0316492188e+04
    1.0859779082e-02    9.0343007812e+04
    1.0869853199e-02    9.0371210938e+04
    1.0879927315e-02    9.0400132812e+04
    1.0889713652e-02    9.0429695312e+04
    1.0899787769e-02    9.0461960938e+04
    1.0909861885e-02    9.0495898438e+04
    1.0919936001e-02    9.0531164062e+04
    1.0929722339e-02    9.0566335938e+04
    1.0939796455e-02    9.0602906250e+04
    1.0949870571e-02    9.0639820312e+04
    1.0959943756e-02    9.0677664062e+04
    1.0969730094e-02    9.0715820312e+04
    1.0979803279e-02    9.0756289062e+04
    1.0989877395e-02    9.0797335938e+04
    1.0999951512e-02    9.0838648438e+04
    1.1009736918e-02    9.0879218750e+04
    1.1019810103e-02    9.0921554688e+04
    1.1029884219e-02    9.0964343750e+04
    1.1039957404e-02    9.1007375000e+04
    1.1049743742e-02    9.1049335938e+04
    1.1059816927e-02    9.1092500000e+04
    1.1069891043e-02    9.1135218750e+04
    1.1079964228e-02    9.1177382812e+04
    1.1089750566e-02    9.1218210938e+04
    1.1099825613e-02    9.1260507812e+04
    1.1109900661e-02    9.1302914062e+04
    1.1119975708e-02    9.1345039062e+04
    1.1129762046e-02    9.1385585938e+04
    1.1139839888e-02    9.1426976562e+04
    1.1149917729e-02    9.1468117188e+04
    1.1159994639e-02    9.1509054688e+04
    1.1169784702e-02    9.1548437500e+04
    1.1179864407e-02    9.1588289062e+04
    1.1189945042e-02    9.1627257812e+04
    1.1199736968e-02    9.1664398438e+04
    1.1209817603e-02    9.1702085938e+04
    1.1219900101e-02    9.1739039062e+04
    1.1229984462e-02    9.1774992188e+04
    1.1239781044e-02    9.1808914062e+04
    1.1249864474e-02    9.1843062500e+04
    1.1259948835e-02    9.1876562500e+04
    1.1269749142e-02    9.1908554688e+04
    1.1279838160e-02    9.1940992188e+04
    1.1289925314e-02    9.1972804688e+04
    1.1299724691e-02    9.2002835938e+04
    1.1309814639e-02    9.2032593750e+04
    1.1319908313e-02    9.2061125000e+04
    1.1329715140e-02    9.2087742188e+04
    1.1339810677e-02    9.2114101562e+04
    1.1349908076e-02    9.2139460938e+04
    1.1359717697e-02    9.2163226562e+04
    1.1369816028e-02    9.2187000000e+04
    1.1379914358e-02    9.2210273438e+04
    1.1389726773e-02    9.2232335938e+04
    1.1399830692e-02    9.2254179688e+04
    1.1409934610e-02    9.2274835938e+04
    1.1419748887e-02    9.2293632812e+04
    1.1429852806e-02    9.2311789062e+04
    1.1439961381e-02    9.2329000000e+04
    1.1449784972e-02    9.2344898438e+04
    1.1459897272e-02    9.2360218750e+04
    1.1469720863e-02    9.2373898438e+04
    1.1479835026e-02    9.2386937500e+04
    1.1489952914e-02    9.2399226562e+04
    1.1499783956e-02    9.2410406250e+04
    1.1509907432e-02    9.2420960938e+04
    1.1519744992e-02    9.2430273438e+04
    1.1529872194e-02    9.2438898438e+04
    1.1539710686e-02    9.2446335938e+04
    1.1549839750e-02    9.2453031250e+04
    1.1559971608e-02    9.2458773438e+04
    1.1569819413e-02    9.2463445312e+04
    1.1579957791e-02    9.2467351562e+04
    1.1589806527e-02    9.2470320312e+04
    1.1599943973e-02    9.2472601562e+04
    1.1609795503e-02    9.2474156250e+04
    1.1619945057e-02    9.2475132812e+04
    1.1629807763e-02    9.2475406250e+04
    1.1639961973e-02    9.2474898438e+04
    1.1649825610e-02    9.2473531250e+04
    1.1659980752e-02    9.2471210938e+04
    1.1669850908e-02    9.2468070312e+04
    1.1679722928e-02    9.2464148438e+04
    1.1689890176e-02    9.2459398438e+04
    1.1699769646e-02    9.2454210938e+04
    1.1709939688e-02    9.2448492188e+04
    1.1719821952e-02    9.2442726562e+04
    1.1729997583e-02    9.2436601562e+04
    1.1739887297e-02    9.2430335938e+04
    1.1749782600e-02    9.2423539062e+04
    1.1759970337e-02    9.2415976562e+04
    1.1769866571e-02    9.2408148438e+04
    1.1779763736e-02    9.2399945312e+04
    1.1789956130e-02    9.2391242188e+04
    1.1799863540e-02    9.2382601562e+04
    1.1809775606e-02    9.2373773438e+04
    1.1819981039e-02    9.2364398438e+04
    1.1829894036e-02    9.2354960938e+04
    1.1839809828e-02    9.2345218750e+04
    1.1849728413e-02    9.2335218750e+04
    1.1859945953e-02    9.2324625000e+04
    1.1869875714e-02    9.2314031250e+04
    1.1879804544e-02    9.2303101562e+04
    1.1889735237e-02    9.2291750000e+04
    1.1899956502e-02    9.2279593750e+04
    1.1909892783e-02    9.2267523438e+04
    1.1919836514e-02    9.2255437500e+04
    1.1929784901e-02    9.2243757812e+04
    1.1939735152e-02    9.2232914062e+04
    1.1949976906e-02    9.2222914062e+04
    1.1959929019e-02    9.2214179688e+04
    1.1969882995e-02    9.2205835938e+04
    1.1979841627e-02    9.2197179688e+04
    1.1989803985e-02    9.2187648438e+04
    1.1999765411e-02    9.2177000000e+04
    1.2009727769e-02    9.2165398438e+04
    1.2019985355e-02    9.2152789062e+04
    1.2029956095e-02    9.2140210938e+04
    1.2039930560e-02    9.2127492188e+04
    1.2049908750e-02    9.2114750000e+04
    1.2059886009e-02    9.2101945312e+04
    1.2069863267e-02    9.2088851562e+04
    1.2079844251e-02    9.2075312500e+04
    1.2089832686e-02    9.2061445312e+04
    1.2099825777e-02    9.2047445312e+04
    1.2109823525e-02    9.2033335938e+04
    1.2119819410e-02    9.2018992188e+04
    1.2129814364e-02    9.2004367188e+04
    1.2139811181e-02    9.1989468750e+04
    1.2149816379e-02    9.1974281250e+04
    1.2159829028e-02    9.1958726562e+04
    1.2169842608e-02    9.1942835938e+04
    1.2179856189e-02    9.1926601562e+04
    1.2189866975e-02    9.1910062500e+04
    1.2199881487e-02    9.1893273438e+04
    1.2209905311e-02    9.1876304688e+04
    1.2219932862e-02    9.1859242188e+04
    1.2229964137e-02    9.1842093750e+04
    1.2239991687e-02    9.1824726562e+04
    1.2249726802e-02    9.1807539062e+04
    1.2259756215e-02    9.1789476562e+04
    1.2269792147e-02    9.1771101562e+04
    1.2279837392e-02    9.1752531250e+04
    1.2289884500e-02    9.1733789062e+04
    1.2299931608e-02    9.1714851562e+04
    1.2309977785e-02    9.1695718750e+04
    1.2319731526e-02    9.1676992188e+04
    1.2329789810e-02    9.1657562500e+04
    1.2339852750e-02    9.1637992188e+04
    1.2349918485e-02    9.1618273438e+04
    1.2359980494e-02    9.1598398438e+04
    1.2369750068e-02    9.1578976562e+04
    1.2379821390e-02    9.1558851562e+04
    1.2389898300e-02    9.1538523438e+04
    1.2399978936e-02    9.1517929688e+04
    1.2409765273e-02    9.1497695312e+04
    1.2419848703e-02    9.1476664062e+04
    1.2429931201e-02    9.1455601562e+04
    1.2439720333e-02    9.1435257812e+04
    1.2449813075e-02    9.1414273438e+04
    1.2459910475e-02    9.1393062500e+04
    1.2469711713e-02    9.1372164062e+04
    1.2479805388e-02    9.1350460938e+04
    1.2489901856e-02    9.1328773438e+04
    1.2499704026e-02    9.1307773438e+04
    1.2509809807e-02    9.1286117188e+04
    1.2519918382e-02    9.1264507812e+04
    1.2529728934e-02    9.1243625000e+04
    1.2539837509e-02    9.1222093750e+04
    1.2549944222e-02    9.1200414062e+04
    1.2559745461e-02    9.1179179688e+04
    1.2569840066e-02    9.1157156250e+04
    1.2579928152e-02    9.1135148438e+04
    1.2589710765e-02    9.1113898438e+04
    1.2599783950e-02    9.1092054688e+04
    1.2609849684e-02    9.1070125000e+04
    1.2619909830e-02    9.1048132812e+04
    1.2629964389e-02    9.1026242188e+04
    1.2639760971e-02    9.1005039062e+04
    1.2649745680e-02    9.0983445312e+04
    1.2659929693e-02    9.0961335938e+04
    1.2669994496e-02    9.0939414062e+04
    1.2679923326e-02    9.0917875000e+04
    1.2689695694e-02    9.0896773438e+04
    1.2699960731e-02    9.0874679688e+04
    1.2709718198e-02    9.0853664062e+04
    1.2719964609e-02    9.0831648438e+04
    1.2729657814e-02    9.0810914062e+04
    1.2739834376e-02    9.0789195312e+04
    1.2749767862e-02    9.0767968750e+04
    1.2759816833e-02    9.0746445312e+04
    1.2769939378e-02    9.0724789062e+04
    1.2779744342e-02    9.0703882812e+04
    1.2789724395e-02    9.0682492188e+04
    1.2799989432e-02    9.0660750000e+04
    1.2809997424e-02    9.0639726562e+04
    1.2819721363e-02    9.0619507812e+04
    1.2829787098e-02    9.0598656250e+04
    1.2839877047e-02    9.0577687500e+04
    1.2849985622e-02    9.0556648438e+04
    1.2859803624e-02    9.0536257812e+04
    1.2869926170e-02    9.0515351562e+04
    1.2879758142e-02    9.0495148438e+04
    1.2889893726e-02    9.0474335938e+04
    1.2899736874e-02    9.0454210938e+04
    1.2909883633e-02    9.0433656250e+04
    1.2919737026e-02    9.0413960938e+04
    1.2929892167e-02    9.0393851562e+04
    1.2939753011e-02    9.0374382812e+04
    1.2949915603e-02    9.0354343750e+04
    1.2959781103e-02    9.0334914062e+04
    1.2969948351e-02    9.0314843750e+04
    1.2979817577e-02    9.0295367188e+04
    1.2989986688e-02    9.0275460938e+04
    1.2999857776e-02    9.0256476562e+04
    1.3009728864e-02    9.0237992188e+04
    1.3019898906e-02    9.0219382812e+04
    1.3029769994e-02    9.0201601562e+04
    1.3039940037e-02    9.0183468750e+04
    1.3049810193e-02    9.0165945312e+04
    1.3059980236e-02    9.0147789062e+04
    1.3069850393e-02    9.0129960938e+04
    1.3079720549e-02    9.0111976562e+04
    1.3089889660e-02    9.0093351562e+04
    1.3099759817e-02    9.0075437500e+04
    1.3109928928e-02    9.0057164062e+04
    1.3119798154e-02    9.0039710938e+04
    1.3129966334e-02    9.0021960938e+04
    1.3139835559e-02    9.0005023438e+04
    1.3149703853e-02    8.9988312500e+04
    1.3159872033e-02    8.9971289062e+04
    1.3169740327e-02    8.9954906250e+04
    1.3179907575e-02    8.9938164062e+04
    1.3189774938e-02    8.9922164062e+04
    1.3199941255e-02    8.9906031250e+04
    1.3209808618e-02    8.9890664062e+04
    1.3219974004e-02    8.9875093750e+04
    1.3229841366e-02    8.9860195312e+04
    1.3239707798e-02    8.9845585938e+04
    1.3249872252e-02    8.9830726562e+04
    1.3259737752e-02    8.9816289062e+04
    1.3269902207e-02    8.9801289062e+04
    1.3279767707e-02    8.9786750000e+04
    1.3289931230e-02    8.9771898438e+04
    1.3299795799e-02    8.9757726562e+04
    1.3309958391e-02    8.9743468750e+04
    1.3319822960e-02    8.9730101562e+04
    1.3329985552e-02    8.9716914062e+04
    1.3339848258e-02    8.9704726562e+04
    1.3349710964e-02    8.9693187500e+04
    1.3359872624e-02    8.9681835938e+04
    1.3369735330e-02    8.9671101562e+04
    1.3379896060e-02    8.9660289062e+04
    1.3389758766e-02    8.9650187500e+04
    1.3399918564e-02    8.9640187500e+04
    1.3409780338e-02    8.9630875000e+04
    1.3419940136e-02    8.9621656250e+04
    1.3429800980e-02    8.9613179688e+04
    1.3439959846e-02    8.9605195312e+04
    1.3449819759e-02    8.9598460938e+04
    1.3459978625e-02    8.9592625000e+04
    1.3469838537e-02    8.9587867188e+04
    1.3479997404e-02    8.9583562500e+04
    1.3489856385e-02    8.9579820312e+04
    1.3499716297e-02    8.9576570312e+04
    1.3509873301e-02    8.9573945312e+04
    1.3519732282e-02    8.9572195312e+04
    1.3529890217e-02    8.9571101562e+04
    1.3539748266e-02    8.9570695312e+04
    1.3549906202e-02    8.9571062500e+04
    1.3559764251e-02    8.9572460938e+04
    1.3569921255e-02    8.9575148438e+04
    1.3579779305e-02    8.9578804688e+04
    1.3589936309e-02    8.9583351562e+04
    1.3599795289e-02    8.9588343750e+04
    1.3609952293e-02    8.9594062500e+04
    1.3619810343e-02    8.9600257812e+04
    1.3629968278e-02    8.9607398438e+04
    1.3639828190e-02    8.9615148438e+04
    1.3649988919e-02    8.9624039062e+04
    1.3659851626e-02    8.9633523438e+04
    1.3669714332e-02    8.9643882812e+04
    1.3679875992e-02    8.9655632812e+04
    1.3689740561e-02    8.9668101562e+04
    1.3699905947e-02    8.9682062500e+04
    1.3709775172e-02    8.9696593750e+04
    1.3719947077e-02    8.9712289062e+04
    1.3729820959e-02    8.9727992188e+04
    1.3739995658e-02    8.9744460938e+04
    1.3749871403e-02    8.9760742188e+04
    1.3759747148e-02    8.9777492188e+04
    1.3769921847e-02    8.9795476562e+04
    1.3779797591e-02    8.9813843750e+04
    1.3789973222e-02    8.9833718750e+04
    1.3799850829e-02    8.9853789062e+04
    1.3809729367e-02    8.9874476562e+04
    1.3819909655e-02    8.9896351562e+04
    1.3829790056e-02    8.9918179688e+04
    1.3839972205e-02    8.9941335938e+04
    1.3849855401e-02    8.9964554688e+04
    1.3859740458e-02    8.9988585938e+04
    1.3869926333e-02    9.0014242188e+04
    1.3879813254e-02    9.0039968750e+04
    1.3889702037e-02    9.0066398438e+04
    1.3899891637e-02    9.0094125000e+04
    1.3909782283e-02    9.0121406250e+04
    1.3919973746e-02    9.0149906250e+04
    1.3929866254e-02    9.0178085938e+04
    1.3939760625e-02    9.0206906250e+04
    1.3949955814e-02    9.0237382812e+04
    1.3959852047e-02    9.0267718750e+04
    1.3969749212e-02    9.0298726562e+04
    1.3979947194e-02    9.0331257812e+04
    1.3989846222e-02    9.0363343750e+04
    1.3999746181e-02    9.0395898438e+04
    1.4009946957e-02    9.0429875000e+04
    1.4019847848e-02    9.0463312500e+04
    1.4029749669e-02    9.0497257812e+04
    1.4039952308e-02    9.0532757812e+04
    1.4049855061e-02    9.0567617188e+04
    1.4059757814e-02    9.0602820312e+04
    1.4069962315e-02    9.0639476562e+04
    1.4079866931e-02    9.0675523438e+04
    1.4089772478e-02    9.0712101562e+04
    1.4099977911e-02    9.0750429688e+04
    1.4109883457e-02    9.0788226562e+04
    1.4119789004e-02    9.0826585938e+04
    1.4129995368e-02    9.0866648438e+04
    1.4139901847e-02    9.0905968750e+04
    1.4149809256e-02    9.0945710938e+04
    1.4159716666e-02    9.0985820312e+04
    1.4169923961e-02    9.1027562500e+04
    1.4179831371e-02    9.1068476562e+04
    1.4189739712e-02    9.1109773438e+04
    1.4199947938e-02    9.1152601562e+04
    1.4209856279e-02    9.1194382812e+04
    1.4219764620e-02    9.1236273438e+04
    1.4229972847e-02    9.1279429688e+04
    1.4239881188e-02    9.1321289062e+04
    1.4249790460e-02    9.1363062500e+04
    1.4259699732e-02    9.1404632812e+04
    1.4269909821e-02    9.1447117188e+04
    1.4279820025e-02    9.1487914062e+04
    1.4289730228e-02    9.1528273438e+04
    1.4299940318e-02    9.1569351562e+04
    1.4309851453e-02    9.1608664062e+04
    1.4319761656e-02    9.1647351562e+04
    1.4329972677e-02    9.1686429688e+04
    1.4339883812e-02    9.1723492188e+04
    1.4349794947e-02    9.1759648438e+04
    1.4359707013e-02    9.1794757812e+04
    1.4369918965e-02    9.1829781250e+04
    1.4379831031e-02    9.1862585938e+04
    1.4389743097e-02    9.1894187500e+04
    1.4399955980e-02    9.1925726562e+04
    1.4409868978e-02    9.1955882812e+04
    1.4419781975e-02    9.1986414062e+04
    1.4429996721e-02    9.2019625000e+04
    1.4439910650e-02    9.2055273438e+04
    1.4449824579e-02    9.2096273438e+04
    1.4459739439e-02    9.2144648438e+04
    1.4469955117e-02    9.2204445312e+04
    1.4479869977e-02    9.2274257812e+04
    1.4489785768e-02    9.2357593750e+04
    1.4499701560e-02    9.2456398438e+04
    1.4509919100e-02    9.2576664062e+04
    1.4519835822e-02    9.2714062500e+04
    1.4529752545e-02    9.2875437500e+04
    1.4539971016e-02    9.3072968750e+04
    1.4549889602e-02    9.3313335938e+04
    1.4559808187e-02    9.3723335938e+04
    1.4569727704e-02    9.5020679688e+04
    1.4579948038e-02    9.7793539062e+04
    1.4589867555e-02    9.8239835938e+04
    1.4599788003e-02    9.8169531250e+04
    1.4609709382e-02    9.8222312500e+04
    1.4619931579e-02    9.8240406250e+04
    1.4629852958e-02    9.8246101562e+04
    1.4639776200e-02    9.8255335938e+04
    1.4650000259e-02    9.8260085938e+04
    1.4659923501e-02    9.8263000000e+04
    1.4669848606e-02    9.8264023438e+04
    1.4679773711e-02    9.8263523438e+04
    1.4689999633e-02    9.8261085938e+04
    1.4699925669e-02    9.8257460938e+04
    1.4709852636e-02    9.8252335938e+04
    1.4719780535e-02    9.8246445312e+04
    1.4729708433e-02    9.8239750000e+04
    1.4739937149e-02    9.8231882812e+04
    1.4749866910e-02    9.8223742188e+04
    1.4759796672e-02    9.8215375000e+04
    1.4769727364e-02    9.8206445312e+04
    1.4779959805e-02    9.8196585938e+04
    1.4789891429e-02    9.8186593750e+04
    1.4799823985e-02    9.8176585938e+04
    1.4809756540e-02    9.8166632812e+04
    1.4819991775e-02    9.8156320312e+04
    1.4829926193e-02    9.8146320312e+04
    1.4839860611e-02    9.8136210938e+04
    1.4849796891e-02    9.8126117188e+04
    1.4859733172e-02    9.8116164062e+04
    1.4869971201e-02    9.8106156250e+04
    1.4879909344e-02    9.8096664062e+04
    1.4889847487e-02    9.8087414062e+04
    1.4899786562e-02    9.8078257812e+04
    1.4909726568e-02    9.8069226562e+04
    1.4919968322e-02    9.8060132812e+04
    1.4929909259e-02    9.8051632812e+04
    1.4939851128e-02    9.8043437500e+04
    1.4949793927e-02    9.8035757812e+04
    1.4959737659e-02    9.8028406250e+04
    1.4969983138e-02    9.8021312500e+04
    1.4979927801e-02    9.8014820312e+04
    1.4989873394e-02    9.8008710938e+04
    1.4999819919e-02    9.8002945312e+04
    1.5009766445e-02    9.7997523438e+04
    1.5019714832e-02    9.7992476562e+04
    1.5029964037e-02    9.7987804688e+04
    1.5039913356e-02    9.7983710938e+04
    1.5049863607e-02    9.7980148438e+04
    1.5059813857e-02    9.7977125000e+04
    1.5069765039e-02    9.7974554688e+04
    1.5079717152e-02    9.7972414062e+04
    1.5089971945e-02    9.7970757812e+04
    1.5099924989e-02    9.7969718750e+04
    1.5109878965e-02    9.7969242188e+04
    1.5119833872e-02    9.7969273438e+04
    1.5129789710e-02    9.7969687500e+04
    1.5139746480e-02    9.7970539062e+04
    1.5149703249e-02    9.7971835938e+04
    1.5159962699e-02    9.7973695312e+04
    1.5169921331e-02    9.7976054688e+04
    1.5179879963e-02    9.7978960938e+04
    1.5189840458e-02    9.7982523438e+04
    1.5199800953e-02    9.7986789062e+04
    1.5209762380e-02    9.7991804688e+04
    1.5219724737e-02    9.7997523438e+04
    1.5229989775e-02    9.8004023438e+04
    1.5239953063e-02    9.8010976562e+04
    1.5249917284e-02    9.8018414062e+04
    1.5259881504e-02    9.8026351562e+04
    1.5269847587e-02    9.8034648438e+04
    1.5279813670e-02    9.8043226562e+04
    1.5289780684e-02    9.8052164062e+04
    1.5299748629e-02    9.8061539062e+04
    1.5309717506e-02    9.8071367188e+04
    1.5319989063e-02    9.8081968750e+04
    1.5329958871e-02    9.8092632812e+04
    1.5339929610e-02    9.8103664062e+04
    1.5349900350e-02    9.8115085938e+04
    1.5359872952e-02    9.8126835938e+04
    1.5369845554e-02    9.8138914062e+04
    1.5379818156e-02    9.8151226562e+04
    1.5389792621e-02    9.8163851562e+04
    1.5399767086e-02    9.8176875000e+04
    1.5409742482e-02    9.8190351562e+04
    1.5419718809e-02    9.8204335938e+04
    1.5429997817e-02    9.8219250000e+04
    1.5439976007e-02    9.8234242188e+04
    1.5449954197e-02    9.8249718750e+04
    1.5459932387e-02    9.8265468750e+04
    1.5469912440e-02    9.8281132812e+04
    1.5479892492e-02    9.8296210938e+04
    1.5489872545e-02    9.8310281250e+04
    1.5499854460e-02    9.8323210938e+04
    1.5509836376e-02    9.8335148438e+04
    1.5519819222e-02    9.8346460938e+04
    1.5529802069e-02    9.8357585938e+04
    1.5539785847e-02    9.8368812500e+04
    1.5549770556e-02    9.8380335938e+04
    1.5559756197e-02    9.8392023438e+04
    1.5569741838e-02    9.8403664062e+04
    1.5579728410e-02    9.8415007812e+04
    1.5589714982e-02    9.8425945312e+04
    1.5599702485e-02    9.8436539062e+04
    1.5609993599e-02    9.8447210938e+04
    1.5619982034e-02    9.8457320312e+04
    1.5629971400e-02    9.8467148438e+04
    1.5639960766e-02    9.8476617188e+04
    1.5649951994e-02    9.8485781250e+04
    1.5659943223e-02    9.8494710938e+04
    1.5669934452e-02    9.8503437500e+04
    1.5679925680e-02    9.8512039062e+04
    1.5689918771e-02    9.8520507812e+04
    1.5699911863e-02    9.8528851562e+04
    1.5709906816e-02    9.8537148438e+04
    1.5719899908e-02    9.8545382812e+04
    1.5729894862e-02    9.8553625000e+04
    1.5739889815e-02    9.8561898438e+04
    1.5749886632e-02    9.8570210938e+04
    1.5759881586e-02    9.8578601562e+04
    1.5769878402e-02    9.8587148438e+04
    1.5779877082e-02    9.8595820312e+04
    1.5789873898e-02    9.8604648438e+04
    1.5799872577e-02    9.8613476562e+04
    1.5809871256e-02    9.8622164062e+04
    1.5819869936e-02    9.8630382812e+04
    1.5829870477e-02    9.8637585938e+04
    1.5839871019e-02    9.8643164062e+04
    1.5849871561e-02    9.8646492188e+04
    1.5859872103e-02    9.8647023438e+04
    1.5869872645e-02    9.8644210938e+04
    1.5879875049e-02    9.8637101562e+04
    1.5889877453e-02    9.8624125000e+04
    1.5899879858e-02    9.8603257812e+04
    1.5909882262e-02    9.8566992188e+04
    1.5919886529e-02    9.8488437500e+04
    1.5929890797e-02    9.8307687500e+04
    1.5939895064e-02    9.7975148438e+04
    1.5949899331e-02    9.7563226562e+04
    1.5959903598e-02    9.7303617188e+04
    1.5969909728e-02    9.7351632812e+04
    1.5979915857e-02    9.7398898438e+04
    1.5989920124e-02    9.7392468750e+04
    1.5999928117e-02    9.7402726562e+04
    1.6009934247e-02    9.7416164062e+04
    1.6019940376e-02    9.7426507812e+04
    1.6029948369e-02    9.7440429688e+04
    1.6039956361e-02    9.7453898438e+04
    1.6049964353e-02    9.7468914062e+04
    1.6059972346e-02    9.7484476562e+04
    1.6069980338e-02    9.7501039062e+04
    1.6079990193e-02    9.7518320312e+04
    1.6089998186e-02    9.7536398438e+04
    1.6099704430e-02    9.7554585938e+04
    1.6109714285e-02    9.7573960938e+04
    1.6119724140e-02    9.7593914062e+04
    1.6129733995e-02    9.7614398438e+04
    1.6139745712e-02    9.7635406250e+04
    1.6149755567e-02    9.7656937500e+04
    1.6159767285e-02    9.7678914062e+04
    1.6169779003e-02    9.7701289062e+04
    1.6179788858e-02    9.7723976562e+04
    1.6189800575e-02    9.7746976562e+04
    1.6199814156e-02    9.7770242188e+04
    1.6209825873e-02    9.7793742188e+04
    1.6219837591e-02    9.7817414062e+04
    1.6229849309e-02    9.7841226562e+04
    1.6239862889e-02    9.7865101562e+04
    1.6249874607e-02    9.7889039062e+04
    1.6259886324e-02    9.7913085938e+04
    1.6269899905e-02    9.7937210938e+04
    1.6279913485e-02    9.7961398438e+04
    1.6289927065e-02    9.7985539062e+04
    1.6299940646e-02    9.8009648438e+04
    1.6309954226e-02    9.8033625000e+04
    1.6319967806e-02    9.8057460938e+04
    1.6329983249e-02    9.8081148438e+04
    1.6339996830e-02    9.8104656250e+04
    1.6349708661e-02    9.8127343750e+04
    1.6359722242e-02    9.8150632812e+04
    1.6369737685e-02    9.8173789062e+04
    1.6379753128e-02    9.8196789062e+04
    1.6389766708e-02    9.8219554688e+04
    1.6399782151e-02    9.8242070312e+04
    1.6409797594e-02    9.8264304688e+04
    1.6419813037e-02    9.8286242188e+04
    1.6429828480e-02    9.8307867188e+04
    1.6439843923e-02    9.8329164062e+04
    1.6449859366e-02    9.8350148438e+04
    1.6459874809e-02    9.8370812500e+04
    1.6469890252e-02    9.8391164062e+04
    1.6479905695e-02    9.8411195312e+04
    1.6489921138e-02    9.8430906250e+04
    1.6499936581e-02    9.8450289062e+04
    1.6509952024e-02    9.8469335938e+04
    1.6519969329e-02    9.8488031250e+04
    1.6529984772e-02    9.8506367188e+04
    1.6539696604e-02    9.8523789062e+04
    1.6549712047e-02    9.8541406250e+04
    1.6559729353e-02    9.8558617188e+04
    1.6569744796e-02    9.8575429688e+04
    1.6579760239e-02    9.8591835938e+04
    1.6589775681e-02    9.8607812500e+04
    1.6599792987e-02    9.8623414062e+04
    1.6609808430e-02    9.8638679688e+04
    1.6619823873e-02    9.8653585938e+04
    1.6629839316e-02    9.8668132812e+04
    1.6639854759e-02    9.8682312500e+04
    1.6649870202e-02    9.8696132812e+04
    1.6659885645e-02    9.8709625000e+04
    1.6669901088e-02    9.8722781250e+04
    1.6679916531e-02    9.8735601562e+04
    1.6689931974e-02    9.8748093750e+04
    1.6699947417e-02    9.8760226562e+04
    1.6709962860e-02    9.8772031250e+04
    1.6719978303e-02    9.8783476562e+04
    1.6729993746e-02    9.8794570312e+04
    1.6739705577e-02    9.8805007812e+04
    1.6749721020e-02    9.8815437500e+04
    1.6759736463e-02    9.8825531250e+04
    1.6769751906e-02    9.8835289062e+04
    1.6779765487e-02    9.8844718750e+04
    1.6789780930e-02    9.8853789062e+04
    1.6799796373e-02    9.8862539062e+04
    1.6809809953e-02    9.8870976562e+04
    1.6819825396e-02    9.8879187500e+04
    1.6829838976e-02    9.8887250000e+04
    1.6839854419e-02    9.8895242188e+04
    1.6849868000e-02    9.8903226562e+04
    1.6859883443e-02    9.8911210938e+04
    1.6869897023e-02    9.8919125000e+04
    1.6879910603e-02    9.8926882812e+04
    1.6889926046e-02    9.8934429688e+04
    1.6899939626e-02    9.8941742188e+04
    1.6909953207e-02    9.8948835938e+04
    1.6919966787e-02    9.8955757812e+04
    1.6929980367e-02    9.8962523438e+04
    1.6939993948e-02    9.8969132812e+04
    1.6949703917e-02    9.8975382812e+04
    1.6959717497e-02    9.8981664062e+04
    1.6969731078e-02    9.8987789062e+04
    1.6979744658e-02    9.8993789062e+04
    1.6989758238e-02    9.8999710938e+04
    1.6999771819e-02    9.9005562500e+04
    1.7009785399e-02    9.9011343750e+04
    1.7019797117e-02    9.9017023438e+04
    1.7029810697e-02    9.9022562500e+04
    1.7039824277e-02    9.9027968750e+04
    1.7049835995e-02    9.9033257812e+04
    1.7059849575e-02    9.9038460938e+04
    1.7069861293e-02    9.9043562500e+04
    1.7079874873e-02    9.9048562500e+04
    1.7089886591e-02    9.9053414062e+04
    1.7099898309e-02    9.9058148438e+04
    1.7109911889e-02    9.9062750000e+04
    1.7119923607e-02    9.9067257812e+04
    1.7129935324e-02    9.9071679688e+04
    1.7139947042e-02    9.9076000000e+04
    1.7149958760e-02    9.9080164062e+04
    1.7159970477e-02    9.9084148438e+04
    1.7169982195e-02    9.9087914062e+04
    1.7179993913e-02    9.9091562500e+04
    1.7189703882e-02    9.9094976562e+04
    1.7199713737e-02    9.9098398438e+04
    1.7209725454e-02    9.9101679688e+04
    1.7219737172e-02    9.9104781250e+04
    1.7229748890e-02    9.9107695312e+04
    1.7239760607e-02    9.9110429688e+04
    1.7249770463e-02    9.9113023438e+04
    1.7259782180e-02    9.9115460938e+04
    1.7269793898e-02    9.9117742188e+04
    1.7279803753e-02    9.9119851562e+04
    1.7289815471e-02    9.9121789062e+04
    1.7299825326e-02    9.9123554688e+04
    1.7309837043e-02    9.9125132812e+04
    1.7319846898e-02    9.9126539062e+04
    1.7329856753e-02    9.9127773438e+04
    1.7339868471e-02    9.9128804688e+04
    1.7349878326e-02    9.9129656250e+04
    1.7359890044e-02    9.9130312500e+04
    1.7369899899e-02    9.9130781250e+04
    1.7379911616e-02    9.9131085938e+04
    1.7389921471e-02    9.9131250000e+04
    1.7399933189e-02    9.9131273438e+04
    1.7409944907e-02    9.9131148438e+04
    1.7419958487e-02    9.9130835938e+04
    1.7429972067e-02    9.9130335938e+04
    1.7439985648e-02    9.9129601562e+04
    1.7449697480e-02    9.9128726562e+04
    1.7459714785e-02    9.9127679688e+04
    1.7469730228e-02    9.9126476562e+04
    1.7479747534e-02    9.9125132812e+04
    1.7489764839e-02    9.9123601562e+04
    1.7499782145e-02    9.9121898438e+04
    1.7509799451e-02    9.9119992188e+04
    1.7519818619e-02    9.9117906250e+04
    1.7529835925e-02    9.9115664062e+04
    1.7539855093e-02    9.9113257812e+04
    1.7549876124e-02    9.9110710938e+04
    1.7559897155e-02    9.9108000000e+04
    1.7569918185e-02    9.9105125000e+04
    1.7579939216e-02    9.9102093750e+04
    1.7589958385e-02    9.9098914062e+04
    1.7599979416e-02    9.9095593750e+04
    1.7609696835e-02    9.9092226562e+04
    1.7619716004e-02    9.9088632812e+04
    1.7629735172e-02    9.9084898438e+04
    1.7639754340e-02    9.9081023438e+04
    1.7649771646e-02    9.9076992188e+04
    1.7659788951e-02    9.9072835938e+04
    1.7669802532e-02    9.9068507812e+04
    1.7679814249e-02    9.9064023438e+04
    1.7689822242e-02    9.9059351562e+04
    1.7699822783e-02    9.9054539062e+04
    1.7709815875e-02    9.9049617188e+04
    1.7719803378e-02    9.9044585938e+04
    1.7729785293e-02    9.9039429688e+04
    1.7739761621e-02    9.9034156250e+04
    1.7749734223e-02    9.9028773438e+04
    1.7759703100e-02    9.9023281250e+04
    1.7769975588e-02    9.9017523438e+04
    1.7779985443e-02    9.9011804688e+04
    1.7789982259e-02    9.9005976562e+04
    1.7799824476e-02    9.9000101562e+04
    1.7809981480e-02    9.8993929688e+04
    1.7819821835e-02    9.8987851562e+04
    1.7829695717e-02    9.8981687500e+04
    1.7839888111e-02    9.8975218750e+04
    1.7849775031e-02    9.8968851562e+04
    1.7859987915e-02    9.8962210938e+04
    1.7869889736e-02    9.8955687500e+04
    1.7879797146e-02    9.8949148438e+04
    1.7889708281e-02    9.8942554688e+04
    1.7899947241e-02    9.8935695312e+04
    1.7909869552e-02    9.8929000000e+04
    1.7919795588e-02    9.8922242188e+04
    1.7929727212e-02    9.8915437500e+04
    1.7939982936e-02    9.8908351562e+04
    1.7949920148e-02    9.8901398438e+04
    1.7959862947e-02    9.8894351562e+04
    1.7969807610e-02    9.8887242188e+04
    1.7979754135e-02    9.8880070312e+04
    1.7989704385e-02    9.8872843750e+04
    1.7999976873e-02    9.8865335938e+04
    1.8009930849e-02    9.8857968750e+04
    1.8019888550e-02    9.8850507812e+04
    1.8029846251e-02    9.8842929688e+04
    1.8039805815e-02    9.8835226562e+04
    1.8049767241e-02    9.8827414062e+04
    1.8059728667e-02    9.8819507812e+04
    1.8069693819e-02    9.8811523438e+04
    1.8079979345e-02    9.8803179688e+04
    1.8089946359e-02    9.8795039062e+04
    1.8099913374e-02    9.8786851562e+04
    1.8109880388e-02    9.8778648438e+04
    1.8119849265e-02    9.8770429688e+04
    1.8129818141e-02    9.8762226562e+04
    1.8139788881e-02    9.8754007812e+04
    1.8149757758e-02    9.8745726562e+04
    1.8159728497e-02    9.8737343750e+04
    1.8169699237e-02    9.8728851562e+04
    1.8179992214e-02    9.8720031250e+04
    1.8189962953e-02    9.8711445312e+04
    1.8199935555e-02    9.8702851562e+04
    1.8209906295e-02    9.8694226562e+04
    1.8219877034e-02    9.8685500000e+04
    1.8229849637e-02    9.8676593750e+04
    1.8239820376e-02    9.8667500000e+04
    1.8249792978e-02    9.8658289062e+04
    1.8259763718e-02    9.8649023438e+04
    1.8269734457e-02    9.8639726562e+04
    1.8279705197e-02    9.8630414062e+04
    1.8289998174e-02    9.8620773438e+04
    1.8299970776e-02    9.8611398438e+04
    1.8309941515e-02    9.8602000000e+04
    1.8319912255e-02    9.8592562500e+04
    1.8329882994e-02    9.8583062500e+04
    1.8339853734e-02    9.8573476562e+04
    1.8349824473e-02    9.8563789062e+04
    1.8359795213e-02    9.8554007812e+04
    1.8369765952e-02    9.8544132812e+04
    1.8379736692e-02    9.8534179688e+04
    1.8389707431e-02    9.8524187500e+04
    1.8400000408e-02    9.8513851562e+04
    1.8409969285e-02    9.8503875000e+04
    1.8419940025e-02    9.8493945312e+04
    1.8429910764e-02    9.8484031250e+04
    1.8439879641e-02    9.8474101562e+04
    1.8449850380e-02    9.8464164062e+04
    1.8459821120e-02    9.8454281250e+04
    1.8469789997e-02    9.8444476562e+04
    1.8479760736e-02    9.8434757812e+04
    1.8489729613e-02    9.8425101562e+04
    1.8499700353e-02    9.8415492188e+04
    1.8509991467e-02    9.8405648438e+04
    1.8519960344e-02    9.8396242188e+04
    1.8529929221e-02    9.8387007812e+04
    1.8539898098e-02    9.8377960938e+04
    1.8549868837e-02    9.8369062500e+04
    1.8559837714e-02    9.8360304688e+04
    1.8569806591e-02    9.8351687500e+04
    1.8579775468e-02    9.8343273438e+04
    1.8589744344e-02    9.8335039062e+04
    1.8599713221e-02    9.8327039062e+04
    1.8609682098e-02    9.8319226562e+04
    1.8619971350e-02    9.8311398438e+04
    1.8629940227e-02    9.8304054688e+04
    1.8639909104e-02    9.8297039062e+04
    1.8649877980e-02    9.8290398438e+04
    1.8659846857e-02    9.8284085938e+04
    1.8669815734e-02    9.8278054688e+04
    1.8679784611e-02    9.8272281250e+04
    1.8689751625e-02    9.8266710938e+04
    1.8699720502e-02    9.8261351562e+04
    1.8709689379e-02    9.8256218750e+04
    1.8719978631e-02    9.8251179688e+04
    1.8729947507e-02    9.8246601562e+04
    1.8739916384e-02    9.8242351562e+04
    1.8749885261e-02    9.8238437500e+04
    1.8759852275e-02    9.8234804688e+04
    1.8769821152e-02    9.8231429688e+04
    1.8779790029e-02    9.8228304688e+04
    1.8789758906e-02    9.8225468750e+04
    1.8799727783e-02    9.8222945312e+04
    1.8809696659e-02    9.8220742188e+04
    1.8819985911e-02    9.8218789062e+04
    1.8829956651e-02    9.8217179688e+04
    1.8839925528e-02    9.8215851562e+04
    1.8849894404e-02    9.8214804688e+04
    1.8859865144e-02    9.8214062500e+04
    1.8869834021e-02    9.8213617188e+04
    1.8879804760e-02    9.8213476562e+04
    1.8889775500e-02    9.8213632812e+04
    1.8899746239e-02    9.8214085938e+04
    1.8909716979e-02    9.8214804688e+04
    1.8919687718e-02    9.8215789062e+04
    1.8929980695e-02    9.8217085938e+04
    1.8939951435e-02    9.8218585938e+04
    1.8949924037e-02    9.8220351562e+04
    1.8959896639e-02    9.8222398438e+04
    1.8969869241e-02    9.8224710938e+04
    1.8979841843e-02    9.8227273438e+04
    1.8989814445e-02    9.8230054688e+04
    1.8999787048e-02    9.8233007812e+04
    1.9009759650e-02    9.8236132812e+04
    1.9019732252e-02    9.8239429688e+04
    1.9029706717e-02    9.8242914062e+04
    1.9039679319e-02    9.8246593750e+04
    1.9049976021e-02    9.8250554688e+04
    1.9059948623e-02    9.8254531250e+04
    1.9069923088e-02    9.8258617188e+04
    1.9079897553e-02    9.8262789062e+04
    1.9089872018e-02    9.8267054688e+04
    1.9099846482e-02    9.8271429688e+04
    1.9109820947e-02    9.8275960938e+04
    1.9119795412e-02    9.8280687500e+04
    1.9129769877e-02    9.8285664062e+04
    1.9139744341e-02    9.8290914062e+04
    1.9149718806e-02    9.8296382812e+04
    1.9159693271e-02    9.8302039062e+04
    1.9169989973e-02    9.8308070312e+04
    1.9179964438e-02    9.8314062500e+04
    1.9189938903e-02    9.8320148438e+04
    1.9199913368e-02    9.8326281250e+04
    1.9209889695e-02    9.8332343750e+04
    1.9219864160e-02    9.8338273438e+04
    1.9229838625e-02    9.8343992188e+04
    1.9239813089e-02    9.8349500000e+04
    1.9249789417e-02    9.8354742188e+04
    1.9259763882e-02    9.8359695312e+04
    1.9269738346e-02    9.8364281250e+04
    1.9279712811e-02    9.8368437500e+04
    1.9289689139e-02    9.8372125000e+04
    1.9299985841e-02    9.8375398438e+04
    1.9309960306e-02    9.8378007812e+04
    1.9319934770e-02    9.8380000000e+04
    1.9329909235e-02    9.8381257812e+04
    1.9339885563e-02    9.8381398438e+04
    1.9349860027e-02    9.8380468750e+04
    1.9359834492e-02    9.8378164062e+04
    1.9369810820e-02    9.8374289062e+04
    1.9379785284e-02    9.8368726562e+04
    1.9389759749e-02    9.8361625000e+04
    1.9399734214e-02    9.8353226562e+04
    1.9409710541e-02    9.8343742188e+04
    1.9419685006e-02    9.8333414062e+04
    1.9429981709e-02    9.8322039062e+04
    1.9439956173e-02    9.8310460938e+04
[...]
    1.1513970792e-01    1.0120540625e+05
    1.1514981836e-01    1.0120540625e+05
    1.1515993625e-01    1.0120540625e+05
    1.1516971886e-01    1.0120540625e+05
    1.1517983675e-01    1.0120540625e+05
    1.1518994719e-01    1.0120540625e+05
    1.1519973725e-01    1.0120539844e+05
    1.1520984769e-01    1.0120539844e+05
    1.1521996558e-01    1.0120539844e+05
    1.1522975564e-01    1.0120539844e+05
    1.1523986608e-01    1.0120539844e+05
    1.1524998397e-01    1.0120539844e+05
    1.1525976658e-01    1.0120539844e+05
    1.1526988447e-01    1.0120539844e+05
    1.1527999490e-01    1.0120539844e+05
    1.1528978497e-01    1.0120538281e+05
    1.1529989541e-01    1.0120538281e+05
    1.1530968547e-01    1.0120538281e+05
    1.1531979591e-01    1.0120537500e+05
    1.1532991379e-01    1.0120537500e+05
    1.1533970386e-01    1.0120537500e+05
    1.1534981430e-01    1.0120537500e+05
    1.1535993218e-01    1.0120536719e+05
    1.1536971480e-01    1.0120536719e+05
    1.1537983268e-01    1.0120536719e+05
    1.1538994312e-01    1.0120536719e+05
    1.1539973319e-01    1.0120536719e+05
    1.1540984362e-01    1.0120537500e+05
    1.1541996151e-01    1.0120537500e+05
    1.1542975157e-01    1.0120537500e+05
    1.1543986201e-01    1.0120537500e+05
    1.1544997990e-01    1.0120536719e+05
    1.1545976251e-01    1.0120536719e+05
    1.1546988040e-01    1.0120535156e+05
    1.1547999084e-01    1.0120535156e+05
    1.1548978090e-01    1.0120535156e+05
    1.1549989134e-01    1.0120535156e+05
    1.1550968140e-01    1.0120535156e+05
    1.1551979929e-01    1.0120535156e+05
    1.1552990973e-01    1.0120535156e+05
    1.1553969979e-01    1.0120535156e+05
    1.1554981023e-01    1.0120535156e+05
    1.1555992812e-01    1.0120535156e+05
    1.1556971073e-01    1.0120534375e+05
    1.1557982862e-01    1.0120534375e+05
    1.1558993906e-01    1.0120534375e+05
    1.1559972912e-01    1.0120534375e+05
    1.1560983956e-01    1.0120533594e+05
    1.1561995745e-01    1.0120533594e+05
    1.1562974751e-01    1.0120533594e+05
    1.1563985795e-01    1.0120533594e+05
    1.1564997584e-01    1.0120533594e+05
    1.1565975845e-01    1.0120533594e+05
    1.1566987634e-01    1.0120533594e+05
    1.1567998677e-01    1.0120533594e+05
    1.1568977684e-01    1.0120533594e+05
    1.1569988728e-01    1.0120533594e+05
    1.1570967734e-01    1.0120533594e+05
    1.1571979523e-01    1.0120532031e+05
    1.1572990566e-01    1.0120532031e+05
    1.1573969573e-01    1.0120532031e+05
    1.1574980617e-01    1.0120532031e+05
    1.1575992405e-01    1.0120532031e+05
    1.1576970667e-01    1.0120532031e+05
    1.1577982455e-01    1.0120532031e+05
    1.1578993499e-01    1.0120532031e+05
    1.1579972506e-01    1.0120532031e+05
    1.1580983549e-01    1.0120531250e+05
    1.1581995338e-01    1.0120531250e+05
    1.1582974344e-01    1.0120531250e+05
    1.1583985388e-01    1.0120530469e+05
    1.1584997177e-01    1.0120530469e+05
    1.1585975438e-01    1.0120530469e+05
    1.1586987227e-01    1.0120530469e+05
    1.1587998271e-01    1.0120530469e+05
    1.1588977277e-01    1.0120530469e+05
    1.1589988321e-01    1.0120530469e+05
    1.1590967327e-01    1.0120528906e+05
    1.1591979116e-01    1.0120528906e+05
    1.1592990160e-01    1.0120528906e+05
    1.1593969166e-01    1.0120528906e+05
    1.1594980210e-01    1.0120528906e+05
    1.1595991999e-01    1.0120528906e+05
    1.1596970260e-01    1.0120528906e+05
    1.1597982049e-01    1.0120528906e+05
    1.1598993093e-01    1.0120528906e+05
    1.1599972099e-01    1.0120528906e+05
    1.1600983888e-01    1.0120528125e+05
    1.1601994932e-01    1.0120528125e+05
    1.1602973938e-01    1.0120528125e+05
    1.1603984982e-01    1.0120528125e+05
    1.1604996771e-01    1.0120528125e+05
    1.1605975032e-01    1.0120528125e+05
    1.1606986821e-01    1.0120528125e+05
    1.1607997864e-01    1.0120528125e+05
    1.1608976871e-01    1.0120528125e+05
    1.1609988660e-01    1.0120527344e+05
    1.1610999703e-01    1.0120527344e+05
    1.1611978710e-01    1.0120527344e+05
    1.1612989753e-01    1.0120527344e+05
    1.1613968760e-01    1.0120527344e+05
    1.1614979804e-01    1.0120527344e+05
    1.1615991592e-01    1.0120527344e+05
    1.1616970599e-01    1.0120527344e+05
    1.1617981642e-01    1.0120527344e+05
    1.1618992686e-01    1.0120527344e+05
    1.1619971693e-01    1.0120527344e+05
    1.1620983481e-01    1.0120527344e+05
    1.1621994525e-01    1.0120525781e+05
    1.1622973531e-01    1.0120525781e+05
    1.1623984575e-01    1.0120525781e+05
    1.1624996364e-01    1.0120525781e+05
    1.1625975370e-01    1.0120525781e+05
    1.1626986414e-01    1.0120525000e+05
    1.1627997458e-01    1.0120525000e+05
    1.1628976464e-01    1.0120525000e+05
    1.1629988253e-01    1.0120524219e+05
    1.1630999297e-01    1.0120524219e+05
    1.1631978303e-01    1.0120524219e+05
    1.1632989347e-01    1.0120524219e+05
    1.1633968353e-01    1.0120524219e+05
    1.1634979397e-01    1.0120522656e+05
    1.1635991186e-01    1.0120522656e+05
    1.1636970192e-01    1.0120522656e+05
    1.1637981236e-01    1.0120522656e+05
    1.1638993025e-01    1.0120522656e+05
    1.1639971286e-01    1.0120522656e+05
    1.1640983075e-01    1.0120522656e+05
    1.1641994119e-01    1.0120522656e+05
    1.1642973125e-01    1.0120522656e+05
    1.1643984169e-01    1.0120522656e+05
    1.1644995958e-01    1.0120522656e+05
    1.1645974964e-01    1.0120522656e+05
    1.1646986008e-01    1.0120522656e+05
    1.1647997797e-01    1.0120521875e+05
    1.1648976058e-01    1.0120521875e+05
    1.1649987847e-01    1.0120521875e+05
    1.1650998890e-01    1.0120521094e+05
    1.1651977897e-01    1.0120521094e+05
    1.1652988940e-01    1.0120521094e+05
    1.1653967947e-01    1.0120521094e+05
    1.1654979736e-01    1.0120521094e+05
    1.1655990779e-01    1.0120521094e+05
    1.1656969786e-01    1.0120521094e+05
    1.1657980829e-01    1.0120521094e+05
    1.1658992618e-01    1.0120521094e+05
    1.1659971625e-01    1.0120521094e+05
    1.1660982668e-01    1.0120521094e+05
    1.1661993712e-01    1.0120521094e+05
    1.1662972718e-01    1.0120521094e+05
    1.1663984507e-01    1.0120519531e+05
    1.1664995551e-01    1.0120519531e+05
    1.1665974557e-01    1.0120519531e+05
    1.1666985601e-01    1.0120519531e+05
    1.1667997390e-01    1.0120519531e+05
    1.1668975651e-01    1.0120519531e+05
    1.1669987440e-01    1.0120519531e+05
    1.1670998484e-01    1.0120518750e+05
    1.1671977490e-01    1.0120518750e+05
    1.1672989279e-01    1.0120518750e+05
    1.1673967540e-01    1.0120518750e+05
    1.1674979329e-01    1.0120518750e+05
    1.1675990373e-01    1.0120518750e+05
    1.1676969379e-01    1.0120518750e+05
    1.1677980423e-01    1.0120517969e+05
    1.1678992212e-01    1.0120517969e+05
    1.1679971218e-01    1.0120517969e+05
    1.1680982262e-01    1.0120517969e+05
    1.1681994051e-01    1.0120517969e+05
    1.1682972312e-01    1.0120516406e+05
    1.1683984101e-01    1.0120516406e+05
    1.1684995145e-01    1.0120516406e+05
    1.1685974151e-01    1.0120516406e+05
    1.1686985940e-01    1.0120516406e+05
    1.1687996984e-01    1.0120516406e+05
    1.1688975990e-01    1.0120516406e+05
    1.1689987034e-01    1.0120516406e+05
    1.1690998822e-01    1.0120516406e+05
    1.1691977084e-01    1.0120516406e+05
    1.1692988873e-01    1.0120516406e+05
    1.1693967879e-01    1.0120516406e+05
    1.1694978923e-01    1.0120515625e+05
    1.1695990711e-01    1.0120515625e+05
    1.1696968973e-01    1.0120515625e+05
    1.1697980762e-01    1.0120515625e+05
    1.1698991805e-01    1.0120515625e+05
    1.1699970812e-01    1.0120515625e+05
    1.1700981855e-01    1.0120515625e+05
    1.1701993644e-01    1.0120514844e+05
    1.1702972651e-01    1.0120514844e+05
    1.1703983694e-01    1.0120514844e+05
    1.1704995483e-01    1.0120514844e+05
    1.1705973744e-01    1.0120514844e+05
    1.1706985533e-01    1.0120514844e+05
    1.1707996577e-01    1.0120514844e+05
    1.1708975583e-01    1.0120514844e+05
    1.1709986627e-01    1.0120513281e+05
    1.1710998416e-01    1.0120513281e+05
    1.1711977422e-01    1.0120512500e+05
    1.1712988466e-01    1.0120512500e+05
    1.1714000255e-01    1.0120512500e+05
    1.1714978516e-01    1.0120513281e+05
    1.1715990305e-01    1.0120513281e+05
    1.1716968566e-01    1.0120513281e+05
    1.1717980355e-01    1.0120513281e+05
    1.1718991399e-01    1.0120513281e+05
    1.1719970405e-01    1.0120513281e+05
    1.1720982194e-01    1.0120513281e+05
    1.1721993238e-01    1.0120512500e+05
    1.1722972244e-01    1.0120512500e+05
    1.1723983288e-01    1.0120511719e+05
    1.1724995077e-01    1.0120510156e+05
    1.1725973338e-01    1.0120510156e+05
    1.1726985127e-01    1.0120510156e+05
    1.1727996171e-01    1.0120510156e+05
    1.1728975177e-01    1.0120509375e+05
    1.1729986966e-01    1.0120510156e+05
    1.1730998009e-01    1.0120510156e+05
    1.1731977016e-01    1.0120510156e+05
    1.1732988060e-01    1.0120510156e+05
    1.1733999848e-01    1.0120510156e+05
    1.1734978110e-01    1.0120510156e+05
    1.1735989898e-01    1.0120510156e+05
    1.1736968905e-01    1.0120510156e+05
    1.1737979949e-01    1.0120510156e+05
    1.1738991737e-01    1.0120510156e+05
    1.1739969999e-01    1.0120510156e+05
    1.1740981787e-01    1.0120510156e+05
    1.1741992831e-01    1.0120510156e+05
    1.1742971838e-01    1.0120509375e+05
    1.1743982881e-01    1.0120508594e+05
    1.1744994670e-01    1.0120508594e+05
    1.1745973676e-01    1.0120508594e+05
    1.1746984720e-01    1.0120508594e+05
    1.1747996509e-01    1.0120508594e+05
    1.1748974770e-01    1.0120509375e+05
    1.1749986559e-01    1.0120510156e+05
    1.1750997603e-01    1.0120510156e+05
    1.1751976609e-01    1.0120511719e+05
    1.1752987653e-01    1.0120511719e+05
    1.1753999442e-01    1.0120511719e+05
    1.1754978448e-01    1.0120510156e+05
    1.1755989492e-01    1.0120510156e+05
    1.1756968498e-01    1.0120508594e+05
    1.1757979542e-01    1.0120506250e+05
    1.1758991331e-01    1.0120503906e+05
    1.1759970337e-01    1.0120503906e+05
    1.1760981381e-01    1.0120503906e+05
    1.1761993170e-01    1.0120503906e+05
    1.1762971431e-01    1.0120505469e+05
    1.1763983220e-01    1.0120506250e+05
    1.1764994264e-01    1.0120508594e+05
    1.1765973270e-01    1.0120508594e+05
    1.1766984314e-01    1.0120509375e+05
    1.1767996103e-01    1.0120509375e+05
    1.1768975109e-01    1.0120508594e+05
    1.1769986153e-01    1.0120507031e+05
    1.1770997941e-01    1.0120505469e+05
    1.1771976203e-01    1.0120503906e+05
    1.1772987992e-01    1.0120503906e+05
    1.1773999035e-01    1.0120503906e+05
    1.1774978042e-01    1.0120503906e+05
    1.1775989085e-01    1.0120503906e+05
    1.1776968092e-01    1.0120505469e+05
    1.1777979881e-01    1.0120505469e+05
    1.1778990924e-01    1.0120506250e+05
    1.1779969931e-01    1.0120507031e+05
    1.1780980974e-01    1.0120507031e+05
    1.1781992763e-01    1.0120507031e+05
    1.1782971025e-01    1.0120507031e+05
    1.1783982813e-01    1.0120507031e+05
    1.1784993857e-01    1.0120507031e+05
    1.1785972863e-01    1.0120506250e+05
    1.1786984652e-01    1.0120505469e+05
    1.1787995696e-01    1.0120503906e+05
    1.1788974702e-01    1.0120503125e+05
    1.1789985746e-01    1.0120503125e+05
    1.1790997535e-01    1.0120502344e+05
    1.1791975796e-01    1.0120502344e+05
    1.1792987585e-01    1.0120502344e+05
    1.1793998629e-01    1.0120502344e+05
    1.1794977635e-01    1.0120502344e+05
    1.1795989424e-01    1.0120502344e+05
    1.1796967685e-01    1.0120502344e+05
    1.1797979474e-01    1.0120503125e+05
    1.1798990518e-01    1.0120503125e+05
    1.1799969524e-01    1.0120502344e+05
    1.1800981313e-01    1.0120502344e+05
    1.1801992357e-01    1.0120500781e+05
    1.1802971363e-01    1.0120499219e+05
    1.1803982407e-01    1.0120499219e+05
    1.1804994196e-01    1.0120499219e+05
    1.1805972457e-01    1.0120500000e+05
    1.1806984246e-01    1.0120500781e+05
    1.1807995290e-01    1.0120500781e+05
    1.1808974296e-01    1.0120502344e+05
    1.1809986085e-01    1.0120502344e+05
    1.1810997128e-01    1.0120500781e+05
    1.1811976135e-01    1.0120500781e+05
    1.1812987179e-01    1.0120500000e+05
    1.1813998967e-01    1.0120499219e+05
    1.1814977229e-01    1.0120499219e+05
    1.1815989017e-01    1.0120499219e+05
    1.1816968024e-01    1.0120500000e+05
    1.1817979068e-01    1.0120500000e+05
    1.1818990856e-01    1.0120500781e+05
    1.1819969118e-01    1.0120500781e+05
    1.1820980906e-01    1.0120500781e+05
    1.1821991950e-01    1.0120500781e+05
    1.1822970957e-01    1.0120500781e+05
    1.1823982000e-01    1.0120500781e+05
    1.1824993789e-01    1.0120500000e+05
    1.1825972795e-01    1.0120499219e+05
    1.1826983839e-01    1.0120497656e+05
    1.1827995628e-01    1.0120496875e+05
    1.1828973889e-01    1.0120496875e+05
    1.1829985678e-01    1.0120496875e+05
    1.1830996722e-01    1.0120497656e+05
    1.1831975728e-01    1.0120497656e+05
    1.1832986772e-01    1.0120497656e+05
    1.1833998561e-01    1.0120497656e+05
    1.1834977567e-01    1.0120497656e+05
    1.1835988611e-01    1.0120497656e+05
    1.1836967617e-01    1.0120497656e+05
    1.1837978661e-01    1.0120496875e+05
    1.1838990450e-01    1.0120496094e+05
    1.1839969456e-01    1.0120496094e+05
    1.1840980500e-01    1.0120496094e+05
    1.1841992289e-01    1.0120496875e+05
    1.1842970550e-01    1.0120496875e+05
    1.1843982339e-01    1.0120496875e+05
    1.1844993383e-01    1.0120496875e+05
    1.1845972389e-01    1.0120496094e+05
    1.1846983433e-01    1.0120496094e+05
    1.1847995222e-01    1.0120496094e+05
    1.1848974228e-01    1.0120496094e+05
    1.1849985272e-01    1.0120496094e+05
    1.1850997061e-01    1.0120496094e+05
    1.1851975322e-01    1.0120496094e+05
    1.1852987111e-01    1.0120496094e+05
    1.1853998154e-01    1.0120496094e+05
    1.1854977161e-01    1.0120496094e+05
    1.1855988204e-01    1.0120496094e+05
    1.1856999993e-01    1.0120496094e+05
    1.1857979000e-01    1.0120496094e+05
    1.1858990043e-01    1.0120496094e+05
    1.1859969050e-01    1.0120496094e+05
    1.1860980093e-01    1.0120494531e+05
    1.1861991882e-01    1.0120494531e+05
    1.1862970144e-01    1.0120493750e+05
    1.1863981932e-01    1.0120493750e+05
    1.1864992976e-01    1.0120493750e+05
    1.1865971982e-01    1.0120493750e+05
    1.1866983771e-01    1.0120493750e+05
    1.1867994815e-01    1.0120493750e+05
    1.1868973821e-01    1.0120493750e+05
    1.1869984865e-01    1.0120492969e+05
    1.1870996654e-01    1.0120492969e+05
    1.1871975660e-01    1.0120492969e+05
    1.1872986704e-01    1.0120493750e+05
    1.1873997748e-01    1.0120493750e+05
    1.1874976754e-01    1.0120493750e+05
    1.1875988543e-01    1.0120493750e+05
    1.1876999587e-01    1.0120493750e+05
    1.1877978593e-01    1.0120492969e+05
    1.1878989637e-01    1.0120492969e+05
    1.1879968643e-01    1.0120491406e+05
    1.1880980432e-01    1.0120491406e+05
    1.1881991476e-01    1.0120491406e+05
    1.1882970482e-01    1.0120491406e+05
    1.1883981526e-01    1.0120491406e+05
    1.1884993315e-01    1.0120491406e+05
    1.1885971576e-01    1.0120491406e+05
    1.1886983365e-01    1.0120491406e+05
    1.1887994409e-01    1.0120491406e+05
    1.1888973415e-01    1.0120491406e+05
    1.1889985204e-01    1.0120491406e+05
    1.1890996248e-01    1.0120491406e+05
    1.1891975254e-01    1.0120491406e+05
    1.1892986298e-01    1.0120491406e+05
    1.1893998086e-01    1.0120491406e+05
    1.1894976348e-01    1.0120490625e+05
    1.1895988137e-01    1.0120490625e+05
    1.1896999180e-01    1.0120489844e+05
    1.1897978187e-01    1.0120489844e+05
    1.1898989975e-01    1.0120489844e+05
    1.1899968237e-01    1.0120489844e+05
    1.1900980026e-01    1.0120489844e+05
    1.1901991069e-01    1.0120489844e+05
    1.1902970076e-01    1.0120489844e+05
    1.1903981864e-01    1.0120489844e+05
    1.1904992908e-01    1.0120489844e+05
    1.1905971915e-01    1.0120489844e+05
    1.1906982958e-01    1.0120489844e+05
    1.1907994747e-01    1.0120489844e+05
    1.1908973008e-01    1.0120488281e+05
    1.1909984797e-01    1.0120488281e+05
    1.1910995841e-01    1.0120488281e+05
    1.1911974847e-01    1.0120488281e+05
    1.1912986636e-01    1.0120488281e+05
    1.1913997680e-01    1.0120488281e+05
    1.1914976686e-01    1.0120488281e+05
    1.1915987730e-01    1.0120488281e+05
    1.1916999519e-01    1.0120488281e+05
    1.1917977780e-01    1.0120487500e+05
    1.1918989569e-01    1.0120487500e+05
    1.1919968575e-01    1.0120486719e+05
    1.1920979619e-01    1.0120486719e+05
    1.1921991408e-01    1.0120485156e+05
    1.1922969669e-01    1.0120485156e+05
    1.1923981458e-01    1.0120486719e+05
    1.1924992502e-01    1.0120486719e+05
    1.1925971508e-01    1.0120486719e+05
    1.1926982552e-01    1.0120486719e+05
    1.1927994341e-01    1.0120486719e+05
    1.1928973347e-01    1.0120486719e+05
    1.1929984391e-01    1.0120485156e+05
    1.1930996180e-01    1.0120485156e+05
    1.1931974441e-01    1.0120485156e+05
    1.1932986230e-01    1.0120485156e+05
    1.1933997273e-01    1.0120485156e+05
    1.1934976280e-01    1.0120485156e+05
    1.1935988069e-01    1.0120485156e+05
    1.1936999112e-01    1.0120485156e+05
    1.1937978119e-01    1.0120485156e+05
    1.1938989162e-01    1.0120485156e+05
    1.1939968169e-01    1.0120484375e+05
    1.1940979213e-01    1.0120484375e+05
    1.1941991001e-01    1.0120484375e+05
    1.1942970008e-01    1.0120484375e+05
    1.1943981051e-01    1.0120484375e+05
    1.1944992840e-01    1.0120484375e+05
    1.1945971102e-01    1.0120483594e+05
    1.1946982890e-01    1.0120483594e+05
    1.1947993934e-01    1.0120483594e+05
    1.1948972940e-01    1.0120483594e+05
    1.1949983984e-01    1.0120483594e+05
    1.1950995773e-01    1.0120483594e+05
    1.1951974779e-01    1.0120483594e+05
    1.1952985823e-01    1.0120483594e+05
    1.1953997612e-01    1.0120483594e+05
    1.1954975873e-01    1.0120483594e+05
    1.1955987662e-01    1.0120483594e+05
    1.1956998706e-01    1.0120483594e+05
    1.1957977712e-01    1.0120483594e+05
    1.1958989501e-01    1.0120483594e+05
    1.1959967762e-01    1.0120483594e+05
    1.1960979551e-01    1.0120483594e+05
    1.1961990595e-01    1.0120482031e+05
    1.1962969601e-01    1.0120482031e+05
    1.1963980645e-01    1.0120482031e+05
    1.1964992434e-01    1.0120482031e+05
    1.1965971440e-01    1.0120481250e+05
    1.1966982484e-01    1.0120481250e+05
    1.1967994273e-01    1.0120481250e+05
    1.1968972534e-01    1.0120481250e+05
    1.1969984323e-01    1.0120481250e+05
    1.1970995367e-01    1.0120481250e+05
    1.1971974373e-01    1.0120481250e+05
    1.1972986162e-01    1.0120481250e+05
    1.1973997205e-01    1.0120480469e+05
    1.1974976212e-01    1.0120480469e+05
    1.1975987256e-01    1.0120480469e+05
    1.1976999044e-01    1.0120480469e+05
    1.1977977306e-01    1.0120478906e+05
    1.1978989094e-01    1.0120478906e+05
    1.1979968101e-01    1.0120478906e+05
    1.1980979145e-01    1.0120478906e+05
    1.1981990933e-01    1.0120478906e+05
    1.1982969195e-01    1.0120478906e+05
    1.1983980983e-01    1.0120478906e+05
    1.1984992027e-01    1.0120478906e+05
    1.1985971034e-01    1.0120478906e+05
    1.1986982822e-01    1.0120478906e+05
    1.1987993866e-01    1.0120478906e+05
    1.1988972872e-01    1.0120478906e+05
    1.1989983916e-01    1.0120478906e+05
    1.1990995705e-01    1.0120478906e+05
    1.1991973966e-01    1.0120478906e+05
    1.1992985755e-01    1.0120478906e+05
    1.1993996799e-01    1.0120478125e+05
    1.1994975805e-01    1.0120478125e+05
    1.1995987594e-01    1.0120478125e+05
    1.1996998638e-01    1.0120478125e+05
    1.1997977644e-01    1.0120477344e+05
    1.1998988688e-01    1.0120477344e+05
    1.1999967694e-01    1.0120477344e+05
endcurve
