Curveplot
LS-DYNA keyword deck by LS-PrePost                          
Time
Pressure
Defined Connection
Pressure @ 13 #pts=12001
* Minval=     8.9793843750e+04 at time=         0.0207997914
* Maxval=     1.4363850000e+05 at time=         0.0117299976
    0.0000000000e+00    1.0120000000e+05
    9.9485287137e-06    1.0120000000e+05
    1.9969695131e-05    1.0120000000e+05
    2.9941180401e-05    1.0120000000e+05
    3.9987888158e-05    1.0120000000e+05
    4.9977170420e-05    1.0120000000e+05
    5.9985064581e-05    1.0120000000e+05
    6.9963964052e-05    1.0120000000e+05
    7.9969249782e-05    1.0120000000e+05
    8.9973415015e-05    1.0120000000e+05
    9.9957724160e-05    1.0120000000e+05
    1.0997891513e-04    1.0120000000e+05
    1.1993857333e-04    1.0120000000e+05
    1.2998285820e-04    1.0120000000e+05
    1.3993016910e-04    1.0120000000e+05
    1.4993427612e-04    1.0120000000e+05
    1.5998474555e-04    1.0120000000e+05
    1.6997820057e-04    1.0120000000e+05
    1.7999058764e-04    1.0120000000e+05
    1.8991051184e-04    1.0120000000e+05
    1.9999610959e-04    1.0120000000e+05
    2.0994483202e-04    1.0120000000e+05
    2.1994672716e-04    1.0120000000e+05
    2.2999955399e-04    1.0120000000e+05
    2.3999923724e-04    1.0120000000e+05
    2.4993962143e-04    1.0120000000e+05
    2.5992051815e-04    1.0120000000e+05
    2.6994041400e-04    1.0120000000e+05
    2.7999765007e-04    1.0120000000e+05
    2.8998014750e-04    1.0120000000e+05
    2.9999378603e-04    1.0120000000e+05
    3.0992412940e-04    1.0120000000e+05
    3.1999460771e-04    1.0120000000e+05
    3.2997422386e-04    1.0120000000e+05
    3.3997470746e-04    1.0120000000e+05
    3.4999471973e-04    1.0120000000e+05
    3.5991010373e-04    1.0120000000e+05
    3.6996137351e-04    1.0120000000e+05
    3.7990143755e-04    1.0120000000e+05
    3.8997663069e-04    1.0120000000e+05
    3.9993293467e-04    1.0120000000e+05
    4.0989372064e-04    1.0120000000e+05
    4.1998876259e-04    1.0120000000e+05
    4.2995327385e-04    1.0120000000e+05
    4.3991548591e-04    1.0120000000e+05
    4.4987327419e-04    1.0120000000e+05
    4.5996322297e-04    1.0120000000e+05
    4.6990628471e-04    1.0120000000e+05
    4.7997973161e-04    1.0120000000e+05
    4.8989726929e-04    1.0120000000e+05
    4.9994367873e-04    1.0120000000e+05
    5.0997309154e-04    1.0120000000e+05
    5.1998248091e-04    1.0120000000e+05
    5.2996800514e-04    1.0120000000e+05
    5.3992529865e-04    1.0120000000e+05
    5.4985680617e-04    1.0120000000e+05
    5.5991369300e-04    1.0120000000e+05
    5.6993850740e-04    1.0120000000e+05
    5.7992764050e-04    1.0120000000e+05
    5.8987765806e-04    1.0120000000e+05
    5.9995101765e-04    1.0120000000e+05
    6.0998200206e-04    1.0120000000e+05
    6.1996671138e-04    1.0120000000e+05
    6.2990124570e-04    1.0120000000e+05
    6.3995597884e-04    1.0120000000e+05
    6.4995157300e-04    1.0120000000e+05
    6.5988808637e-04    1.0120000000e+05
    6.6994864028e-04    1.0120000000e+05
    6.7994679557e-04    1.0120000000e+05
    6.8987818668e-04    1.0120000000e+05
    6.9992610952e-04    1.0120000000e+05
    7.0990301901e-04    1.0120000000e+05
    7.1999646025e-04    1.0120000000e+05
    7.2982115671e-04    1.0120000000e+05
    7.3995394632e-04    1.0120000000e+05
    7.4980896898e-04    1.0120000000e+05
    7.5997633394e-04    1.0120000000e+05
    7.6985690976e-04    1.0120000000e+05
    7.7984953532e-04    1.0120000000e+05
    7.8995618969e-04    1.0120000000e+05
    7.9996942077e-04    1.0120000000e+05
    8.0988474656e-04    1.0120000000e+05
    8.1991078332e-04    1.0120000000e+05
    8.2983419998e-04    1.0120000000e+05
    8.3986850223e-04    1.0120000000e+05
    8.4979436360e-04    1.0120000000e+05
    8.5983140161e-04    1.0120000000e+05
    8.6998136248e-04    1.0120000000e+05
    8.7978813099e-04    1.0120000000e+05
    8.8993617101e-04    1.0120000000e+05
    8.9996331371e-04    1.0120000000e+05
    9.0986600844e-04    1.0120000000e+05
    9.1987941414e-04    1.0120000000e+05
    9.2976278393e-04    1.0120000000e+05
    9.3999964884e-04    1.0120000000e+05
    9.4985764008e-04    1.0120000000e+05
    9.5982692437e-04    1.0120000000e+05
    9.6990499878e-04    1.0120000000e+05
    9.7984215245e-04    1.0120000000e+05
    9.8988949321e-04    1.0120000000e+05
    9.9978758954e-04    1.0120000000e+05
    1.0097955819e-03    1.0120000000e+05
    1.0199155658e-03    1.0120000000e+05
    1.0298797861e-03    1.0120000000e+05
    1.0399563471e-03    1.0120000000e+05
    1.0498693446e-03    1.0120000000e+05
    1.0598937515e-03    1.0120000000e+05
    1.0697483085e-03    1.0120000000e+05
    1.0799989104e-03    1.0120000000e+05
    1.0897893226e-03    1.0120000000e+05
    1.0999812512e-03    1.0120000000e+05
    1.1099949479e-03    1.0120000000e+05
    1.1198237771e-03    1.0120000000e+05
    1.1297629680e-03    1.0120000000e+05
    1.1398151983e-03    1.0120000000e+05
    1.1499833781e-03    1.0120000000e+05
    1.1599573772e-03    1.0120000000e+05
    1.1697292794e-03    1.0120000000e+05
    1.1799322674e-03    1.0120000000e+05
    1.1899318779e-03    1.0120000000e+05
    1.1997201946e-03    1.0120000000e+05
    1.2099505402e-03    1.0120000000e+05
    1.2199648190e-03    1.0120000000e+05
    1.2297568610e-03    1.0120000000e+05
    1.2396682287e-03    1.0120000000e+05
    1.2496961281e-03    1.0120000000e+05
    1.2598442845e-03    1.0120000000e+05
    1.2697594939e-03    1.0120000000e+05
    1.2797933305e-03    1.0120000000e+05
    1.2899487047e-03    1.0120000000e+05
    1.2998600723e-03    1.0120000000e+05
    1.3098918134e-03    1.0120000000e+05
    1.3196684886e-03    1.0120000000e+05
    1.3299463317e-03    1.0120000000e+05
    1.3399673626e-03    1.0120000000e+05
    1.3497211039e-03    1.0120000000e+05
    1.3599918457e-03    1.0120000000e+05
    1.3699888950e-03    1.0120000000e+05
    1.3797096908e-03    1.0120000000e+05
    1.3899618061e-03    1.0120000000e+05
    1.3999330113e-03    1.0120000000e+05
    1.4096094528e-03    1.0120000000e+05
    1.4198371209e-03    1.0120000000e+05
    1.4297673479e-03    1.0120000000e+05
    1.4397958294e-03    1.0120000000e+05
    1.4498921810e-03    1.0120000000e+05
    1.4595950488e-03    1.0120000000e+05
    1.4697978040e-03    1.0120000000e+05
    1.4795775060e-03    1.0120000000e+05
    1.4897924848e-03    1.0120000000e+05
    1.4995950041e-03    1.0120000000e+05
    1.5098267468e-03    1.0120000000e+05
    1.5196276363e-03    1.0120000000e+05
    1.5298585640e-03    1.0120000000e+05
    1.5396281378e-03    1.0120000000e+05
    1.5498658177e-03    1.0120000000e+05
    1.5596385347e-03    1.0120000000e+05
    1.5698286006e-03    1.0120000000e+05
    1.5795653453e-03    1.0120000000e+05
    1.5897594858e-03    1.0120000000e+05
    1.5999472234e-03    1.0120000000e+05
    1.6096977051e-03    1.0120000000e+05
    1.6199271195e-03    1.0120000000e+05
    1.6297253314e-03    1.0120000000e+05
    1.6395867569e-03    1.0120000000e+05
    1.6499109333e-03    1.0120000000e+05
    1.6598240472e-03    1.0120000000e+05
    1.6697612591e-03    1.0120000000e+05
    1.6797097633e-03    1.0120000000e+05
    1.6896639718e-03    1.0120000000e+05
    1.6996208578e-03    1.0120000000e+05
    1.7095723888e-03    1.0120000000e+05
    1.7199713038e-03    1.0120000000e+05
    1.7298647435e-03    1.0120000000e+05
    1.7397281481e-03    1.0120000000e+05
    1.7499673413e-03    1.0120000000e+05
    1.7596847611e-03    1.0120000000e+05
    1.7697402509e-03    1.0120000000e+05
    1.7796885222e-03    1.0120000000e+05
    1.7899577506e-03    1.0120000000e+05
    1.7996943789e-03    1.0120000000e+05
    1.8097477732e-03    1.0120000000e+05
    1.8196935998e-03    1.0120000000e+05
    1.8299430376e-03    1.0120000000e+05
    1.8396772211e-03    1.0120000000e+05
    1.8497101264e-03    1.0120000000e+05
    1.8596358132e-03    1.0120000000e+05
    1.8698469503e-03    1.0120000000e+05
    1.8799459795e-03    1.0120000000e+05
    1.8899351126e-03    1.0120000000e+05
    1.8998155138e-03    1.0120000000e+05
    1.9099635538e-03    1.0120000000e+05
    1.9199982053e-03    1.0120000000e+05
    1.9299216801e-03    1.0120000000e+05
    1.9397356082e-03    1.0120000000e+05
    1.9497985486e-03    1.0120000000e+05
    1.9597464707e-03    1.0120000000e+05
    1.9699302502e-03    1.0120000000e+05
    1.9799934234e-03    1.0120000000e+05
    1.9899383187e-03    1.0120000000e+05
    1.9997654017e-03    1.0120000000e+05
    2.0098092500e-03    1.0120000000e+05
    2.0197301637e-03    1.0120000000e+05
    2.0298536401e-03    1.0120000000e+05
    2.0398476627e-03    1.0120000000e+05
    2.0497138612e-03    1.0120000000e+05
    2.0597644616e-03    1.0120000000e+05
    2.0699880552e-03    1.0120000000e+05
    2.0797655452e-03    1.0120000000e+05
    2.0897090435e-03    1.0120000000e+05
    2.0998055115e-03    1.0120000000e+05
    2.1097525023e-03    1.0120000000e+05
    2.1198356990e-03    1.0120000000e+05
    2.1297605708e-03    1.0120000000e+05
    2.1398034878e-03    1.0120000000e+05
    2.1499500144e-03    1.0120000000e+05
    2.1599184256e-03    1.0120000000e+05
    2.1699697245e-03    1.0120000000e+05
    2.1798308007e-03    1.0120000000e+05
    2.1897517145e-03    1.0120000000e+05
    2.1999606397e-03    1.0120000000e+05
    2.2099409252e-03    1.0120000000e+05
    2.2199233063e-03    1.0120000000e+05
    2.2298854310e-03    1.0120000000e+05
    2.2398028523e-03    1.0120000000e+05
    2.2498641629e-03    1.0120000000e+05
    2.2598090582e-03    1.0120000000e+05
    2.2698023822e-03    1.0120000000e+05
    2.2799677681e-03    1.0120000000e+05
    2.2898351308e-03    1.0120000000e+05
    2.2998470813e-03    1.0120000000e+05
    2.3099589162e-03    1.0120000000e+05
    2.3199783172e-03    1.0120000000e+05
    2.3299821187e-03    1.0120000000e+05
    2.3399339989e-03    1.0120000000e+05
    2.3499962408e-03    1.0120000000e+05
    2.3598594125e-03    1.0120000000e+05
    2.3699596059e-03    1.0120000000e+05
    2.3799848277e-03    1.0120000000e+05
    2.3898538202e-03    1.0120000000e+05
    2.3998087272e-03    1.0120000000e+05
    2.4099536240e-03    1.0120000000e+05
    2.4199727923e-03    1.0120000000e+05
    2.4299796205e-03    1.0120000000e+05
    2.4399603717e-03    1.0120000000e+05
    2.4499536958e-03    1.0120000000e+05
    2.4599500466e-03    1.0120000000e+05
    2.4698206689e-03    1.0120000000e+05
    2.4799634703e-03    1.0120000000e+05
    2.4898578413e-03    1.0120000000e+05
    2.4999666493e-03    1.0120000000e+05
    2.5098139886e-03    1.0120000000e+05
    2.5199309457e-03    1.0120000000e+05
    2.5299158879e-03    1.0120000000e+05
    2.5397937279e-03    1.0120000000e+05
    2.5499642361e-03    1.0120000000e+05
    2.5597754866e-03    1.0120000000e+05
    2.5698877871e-03    1.0120000000e+05
    2.5798382703e-03    1.0120000000e+05
    2.5898688473e-03    1.0120000000e+05
    2.5999529753e-03    1.0120000000e+05
    2.6098729577e-03    1.0120000000e+05
    2.6198558044e-03    1.0120000000e+05
    2.6298887096e-03    1.0120000000e+05
    2.6399891358e-03    1.0120000000e+05
    2.6499012019e-03    1.0120000000e+05
    2.6598642580e-03    1.0120000000e+05
    2.6698834263e-03    1.0120000000e+05
    2.6799400803e-03    1.0120000000e+05
    2.6898009237e-03    1.0120000000e+05
    2.6999590918e-03    1.0120000000e+05
    2.7098981664e-03    1.0120000000e+05
    2.7198926546e-03    1.0120000000e+05
    2.7299218345e-03    1.0120000000e+05
    2.7399822138e-03    1.0120000000e+05
    2.7498430572e-03    1.0120000000e+05
    2.7599825989e-03    1.0120000000e+05
    2.7699102648e-03    1.0120000000e+05
    2.7798730880e-03    1.0120000000e+05
    2.7898531407e-03    1.0120000000e+05
    2.7998674195e-03    1.0120000000e+05
    2.8099210467e-03    1.0120000000e+05
    2.8199844528e-03    1.0120000000e+05
    2.8298364487e-03    1.0120000000e+05
    2.8399706353e-03    1.0120000000e+05
    2.8498466127e-03    1.0120000000e+05
    2.8597610071e-03    1.0120000000e+05
    2.8699573595e-03    1.0120000000e+05
    2.8799031861e-03    1.0120000000e+05
    2.8898755554e-03    1.0120000000e+05
    2.8998579364e-03    1.0120000000e+05
    2.9098428786e-03    1.0120000000e+05
    2.9198504053e-03    1.0120000000e+05
    2.9298649170e-03    1.0120000000e+05
    2.9398798943e-03    1.0120000000e+05
    2.9499062803e-03    1.0120000000e+05
    2.9599338304e-03    1.0120000000e+05
    2.9699548613e-03    1.0120000000e+05
    2.9799914919e-03    1.0120000000e+05
    2.9897596687e-03    1.0120000000e+05
    2.9997795355e-03    1.0120000000e+05
    3.0098222196e-03    1.0120000000e+05
    3.0198525637e-03    1.0120000000e+05
    3.0298817437e-03    1.0120000000e+05
    3.0399337411e-03    1.0120000000e+05
    3.0499703716e-03    1.0120000000e+05
    3.0597492587e-03    1.0120000000e+05
    3.0698226765e-03    1.0120000000e+05
    3.0798821244e-03    1.0120000000e+05
    3.0899469275e-03    1.0120000000e+05
    3.0997905415e-03    1.0120000000e+05
    3.1098742038e-03    1.0120000000e+05
    3.1199723016e-03    1.0120000000e+05
    3.1298391987e-03    1.0120000000e+05
    3.1399726868e-03    1.0120000000e+05
    3.1498407479e-03    1.0120000000e+05
    3.1599986833e-03    1.0120000000e+05
    3.1699081883e-03    1.0120000000e+05
    3.1798225828e-03    1.0120000000e+05
    3.1897530425e-03    1.0120000000e+05
    3.1999594066e-03    1.0120000000e+05
    3.2099201344e-03    1.0120000000e+05
    3.2198962290e-03    1.0120000000e+05
    3.2298658043e-03    1.0120000000e+05
    3.2398595940e-03    1.0120000000e+05
    3.2498787623e-03    1.0120000000e+05
    3.2598928083e-03    1.0120000000e+05
    3.2699177973e-03    1.0120000000e+05
    3.2799583860e-03    1.0120000000e+05
    3.2897533383e-03    1.0120000000e+05
    3.2998174429e-03    1.0120000000e+05
    3.3098841086e-03    1.0120000000e+05
    3.3199819736e-03    1.0120000000e+05
    3.3298193011e-03    1.0120000000e+05
    3.3399257809e-03    1.0120000000e+05
    3.3497686964e-03    1.0120000000e+05
    3.3599063754e-03    1.0120000000e+05
    3.3697858453e-03    1.0120000000e+05
    3.3799330704e-03    1.0120000000e+05
    3.3898097463e-03    1.0120000000e+05
    3.3999953885e-03    1.0120000000e+05
    3.4099090844e-03    1.0120000000e+05
    3.4198216163e-03    1.0120000000e+05
    3.4297404345e-03    1.0120000000e+05
    3.4399628639e-03    1.0120000000e+05
    3.4499093890e-03    1.0120000000e+05
    3.4598568454e-03    1.0120000000e+05
    3.4698082600e-03    1.0120000000e+05
    3.4797897097e-03    1.0120000000e+05
    3.4897674341e-03    1.0120000000e+05
    3.4997418988e-03    1.0120000000e+05
    3.5097307991e-03    1.0120000000e+05
    3.5197427496e-03    1.0120000000e+05
    3.5297514405e-03    1.0120000000e+05
    3.5397538450e-03    1.0120000000e+05
    3.5497776698e-03    1.0120000000e+05
    3.5598103423e-03    1.0120000000e+05
    3.5698509309e-03    1.0120000000e+05
    3.5798870958e-03    1.0120000000e+05
    3.5899458453e-03    1.0120000000e+05
    3.5997277591e-03    1.0120000000e+05
    3.6097755656e-03    1.0120000000e+05
    3.6198138259e-03    1.0120000000e+05
    3.6298895720e-03    1.0120000000e+05
    3.6399867386e-03    1.0120000000e+05
    3.6498035770e-03    1.0120000000e+05
    3.6598953884e-03    1.0120000000e+05
    3.6699827760e-03    1.0120000000e+05
    3.6797947250e-03    1.0120000000e+05
    3.6898867693e-03    1.0120000000e+05
    3.6999827716e-03    1.0120000000e+05
    3.7098044995e-03    1.0120000000e+05
    3.7199098151e-03    1.0120000000e+05
    3.7297336385e-03    1.0120000000e+05
    3.7398366258e-03    1.0120000000e+05
    3.7499379832e-03    1.0120000000e+05
    3.7597580813e-03    1.0120000000e+05
    3.7698575761e-03    1.0120000000e+05
    3.7799556740e-03    1.0120000000e+05
    3.7897743750e-03    1.0120000000e+05
    3.7998757325e-03    1.0120000000e+05
    3.8099770900e-03    1.0120000000e+05
    3.8197943941e-03    1.0120000000e+05
    3.8298936561e-03    1.0120000000e+05
    3.8399975747e-03    1.0120000000e+05
    3.8498258218e-03    1.0120000000e+05
    3.8599334657e-03    1.0120000000e+05
    3.8697645068e-03    1.0120000000e+05
    3.8798884489e-03    1.0120000000e+05
    3.8897390477e-03    1.0120000000e+05
    3.8998727687e-03    1.0120000000e+05
    3.9097242989e-03    1.0120000000e+05
    3.9198556915e-03    1.0120000000e+05
    3.9299884811e-03    1.0120000000e+05
    3.9398367517e-03    1.0120000000e+05
    3.9499662817e-03    1.0120000000e+05
    3.9598229341e-03    1.0120000000e+05
    3.9699706249e-03    1.0120000000e+05
    3.9798384532e-03    1.0120000000e+05
    3.9899870753e-03    1.0120000000e+05
    3.9998525754e-03    1.0120000000e+05
    4.0099993348e-03    1.0120000000e+05
    4.0198643692e-03    1.0120000000e+05
    4.0297284722e-03    1.0120000000e+05
    4.0398794226e-03    1.0120000000e+05
    4.0497514419e-03    1.0120000000e+05
    4.0599042550e-03    1.0120000000e+05
    4.0697730146e-03    1.0120000000e+05
    4.0799230337e-03    1.0120000000e+05
    4.0897936560e-03    1.0120000000e+05
    4.0999506600e-03    1.0120000000e+05
    4.1098240763e-03    1.0120000000e+05
    4.1199787520e-03    1.0120000000e+05
    4.1298493743e-03    1.0120000000e+05
    4.1397241876e-03    1.0120000000e+05
    4.1498825885e-03    1.0120000000e+05
    4.1597574018e-03    1.0120000000e+05
    4.1699125431e-03    1.0120000000e+05
    4.1797868907e-03    1.0120000000e+05
    4.1899476200e-03    1.0120000000e+05
    4.1998247616e-03    1.0120000000e+05
    4.2099826969e-03    1.0120000000e+05
    4.2198579758e-03    1.0120000000e+05
    4.2297383770e-03    1.0120000000e+05
    4.2399000376e-03    1.0120000000e+05
    4.2497781105e-03    1.0120000000e+05
    4.2599393055e-03    1.0120000000e+05
    4.2698206380e-03    1.0120000000e+05
    4.2799832299e-03    1.0120000000e+05
    4.2898626998e-03    1.0120000000e+05
    4.2997435667e-03    1.0120000000e+05
    4.3099070899e-03    1.0120000000e+05
    4.3197874911e-03    1.0120000000e+05
    4.3299505487e-03    1.0120000000e+05
    4.3398309499e-03    1.0120000000e+05
    4.3499930762e-03    1.0120000000e+05
    4.3598720804e-03    1.0120000000e+05
    4.3697520159e-03    1.0120000000e+05
    4.3799150735e-03    1.0120000000e+05
    4.3897959404e-03    1.0120000000e+05
    4.3999580666e-03    1.0120000000e+05
    4.4098375365e-03    1.0120000000e+05
    4.4199987315e-03    1.0120000000e+05
    4.4298772700e-03    1.0120000000e+05
    4.4397553429e-03    1.0120000000e+05
    4.4499156065e-03    1.0120000000e+05
    4.4597932138e-03    1.0120000000e+05
    4.4699525461e-03    1.0120000000e+05
    4.4798296876e-03    1.0120000000e+05
    4.4899885543e-03    1.0120000000e+05
    4.4998652302e-03    1.0120000000e+05
    4.5097419061e-03    1.0120000000e+05
    4.5199007727e-03    1.0120000000e+05
    4.5297765173e-03    1.0120000000e+05
    4.5399344526e-03    1.0120000000e+05
    4.5498115942e-03    1.0120000000e+05
    4.5599704608e-03    1.0120000000e+05
    4.5698457398e-03    1.0120000000e+05
    4.5797191560e-03    1.0120000000e+05
    4.5898812823e-03    1.0120000000e+05
    4.5997668058e-03    1.0120000000e+05
    4.6099363826e-03    1.0120000000e+05
    4.6198195778e-03    1.0120000000e+05
    4.6299886890e-03    1.0120000000e+05
    4.6398914419e-03    1.0120000000e+05
    4.6497974545e-03    1.0120000000e+05
    4.6599861234e-03    1.0120000000e+05
    4.6698912047e-03    1.0120000000e+05
    4.6798139811e-03    1.0120000000e+05
    4.6897516586e-03    1.0120000000e+05
    4.6999757178e-03    1.0120000000e+05
    4.7099189833e-03    1.0120000000e+05
    4.7198776156e-03    1.0120000000e+05
    4.7298478894e-03    1.0120000000e+05
    4.7398209572e-03    1.0120000000e+05
    4.7498079948e-03    1.0120000000e+05
    4.7598048113e-03    1.0120000000e+05
    4.7698160633e-03    1.0120000000e+05
    4.7798296437e-03    1.0120000000e+05
    4.7898441553e-03    1.0120000000e+05
    4.7998810187e-03    1.0120000000e+05
    4.8099295236e-03    1.0120000000e+05
    4.8199794255e-03    1.0120000000e+05
    4.8297448084e-03    1.0120000000e+05
    4.8398068175e-03    1.0120000000e+05
    4.8498893157e-03    1.0120000000e+05
    4.8599843867e-03    1.0120000000e+05
    4.8697823659e-03    1.0120000000e+05
    4.8798741773e-03    1.0120000000e+05
    4.8899864778e-03    1.0120000000e+05
    4.8998203129e-03    1.0120000000e+05
    4.9099544995e-03    1.0120000000e+05
    4.9197957851e-03    1.0120000000e+05
    4.9299271777e-03    1.0120000000e+05
    4.9397898838e-03    1.0120000000e+05
    4.9499534070e-03    1.0120000000e+05
    4.9598338082e-03    1.0120000000e+05
    4.9697230570e-03    1.0120000000e+05
    4.9798982218e-03    1.0120000000e+05
    4.9897921272e-03    1.0120000000e+05
    4.9999947660e-03    1.0120000000e+05
    5.0099133514e-03    1.0120000000e+05
    5.0198407844e-03    1.0120000000e+05
    5.0297719426e-03    1.0120000000e+05
    5.0399880856e-03    1.0120000000e+05
    5.0499290228e-03    1.0120000000e+05
    5.0598876551e-03    1.0120000000e+05
    5.0698458217e-03    1.0120000000e+05
    5.0798123702e-03    1.0120000000e+05
    5.0897784531e-03    1.0120000000e+05
    5.0997468643e-03    1.0120000000e+05
    5.1097399555e-03    1.0120000000e+05
    5.1197344437e-03    1.0120000000e+05
    5.1297256723e-03    1.0120000000e+05
    5.1397331990e-03    1.0120000000e+05
    5.1497379318e-03    1.0120000000e+05
    5.1597561687e-03    1.0120000000e+05
    5.1697939634e-03    1.0120000000e+05
    5.1798187196e-03    1.0120000000e+05
    5.1898527890e-03    1.0120000000e+05
    5.1999036223e-03    1.0120000000e+05
    5.2099484019e-03    1.0120000000e+05
    5.2197198384e-03    1.0120000000e+05
    5.2297883667e-03    1.0120000000e+05
    5.2398461848e-03    1.0120000000e+05
    5.2499263547e-03    1.0120000000e+05
    5.2597206086e-03    1.0120000000e+05
    5.2698100917e-03    1.0120000000e+05
    5.2799186669e-03    1.0120000000e+05
    5.2897208370e-03    1.0120000000e+05
    5.2998154424e-03    1.0120000000e+05
    5.3099403158e-03    1.0120000000e+05
    5.3197732195e-03    1.0120000000e+05
    5.3299046122e-03    1.0120000000e+05
    5.3397556767e-03    1.0120000000e+05
    5.3498847410e-03    1.0120000000e+05
    5.3597227670e-03    1.0120000000e+05
    5.3698928095e-03    1.0120000000e+05
    5.3797527216e-03    1.0120000000e+05
    5.3899218328e-03    1.0120000000e+05
    5.3998059593e-03    1.0120000000e+05
    5.4099680856e-03    1.0120000000e+05
    5.4198512807e-03    1.0120000000e+05
    5.4297540337e-03    1.0120000000e+05
    5.4399496876e-03    1.0120000000e+05
    5.4498598911e-03    1.0120000000e+05
    5.4597794078e-03    1.0120000000e+05
    5.4699820466e-03    1.0120000000e+05
    5.4799034260e-03    1.0120000000e+05
    5.4898420349e-03    1.0120000000e+05
    5.4997666739e-03    1.0120000000e+05
    5.5097173899e-03    1.0120000000e+05
    5.5199707858e-03    1.0120000000e+05
    5.5299177766e-03    1.0120000000e+05
    5.5398880504e-03    1.0120000000e+05
    5.5498564616e-03    1.0120000000e+05
    5.5598253384e-03    1.0120000000e+05
    5.5698100477e-03    1.0120000000e+05
    5.5797989480e-03    1.0120000000e+05
    5.5897822604e-03    1.0120000000e+05
    5.5997907184e-03    1.0120000000e+05
    5.6097963825e-03    1.0120000000e+05
    5.6198043749e-03    1.0120000000e+05
    5.6298347190e-03    1.0120000000e+05
    5.6398608722e-03    1.0120000000e+05
    5.6498921476e-03    1.0120000000e+05
    5.6599355303e-03    1.0120000000e+05
    5.6699737906e-03    1.0120000000e+05
    5.6797210127e-03    1.0120000000e+05
    5.6897918694e-03    1.0120000000e+05
    5.6998631917e-03    1.0120000000e+05
    5.7099345140e-03    1.0120000000e+05
    5.7197147980e-03    1.0120000000e+05
    5.7297903113e-03    1.0120000000e+05
    5.7398825884e-03    1.0120000000e+05
    5.7499916293e-03    1.0120000000e+05
    5.7597975247e-03    1.0120000000e+05
    5.7699196041e-03    1.0120000000e+05
    5.7797413319e-03    1.0120000000e+05
    5.7898638770e-03    1.0120000000e+05
    5.7999924757e-03    1.0120000000e+05
    5.8098323643e-03    1.0120000000e+05
    5.8199814521e-03    1.0120000000e+05
    5.8298390359e-03    1.0120000000e+05
    5.8397017419e-03    1.0120000000e+05
    5.8498745784e-03    1.0120000000e+05
    5.8597428724e-03    1.0120000000e+05
    5.8699296787e-03    1.0120000000e+05
    5.8798105456e-03    1.0120000000e+05
    5.8897053823e-03    1.0120000000e+05
    5.8999196626e-03    1.0120000000e+05
    5.9098266065e-03    1.0120000000e+05
    5.9197451919e-03    1.0120000000e+05
    5.9299762361e-03    1.0120000000e+05
    5.9399059974e-03    1.0120000000e+05
    5.9498380870e-03    1.0120000000e+05
    5.9597804211e-03    1.0120000000e+05
    5.9697204269e-03    1.0120000000e+05
    5.9799901210e-03    1.0120000000e+05
    5.9899492189e-03    1.0120000000e+05
    5.9999218211e-03    1.0120000000e+05
    6.0099065304e-03    1.0120000000e+05
    6.0199056752e-03    1.0120000000e+05
    6.0299113393e-03    1.0120000000e+05
    6.0399160720e-03    1.0120000000e+05
    6.0499180108e-03    1.0120000000e+05
    6.0599274002e-03    1.0120000000e+05
    6.0699419118e-03    1.0120000000e+05
    6.0799587518e-03    1.0120000000e+05
    6.0899858363e-03    1.0120000000e+05
    6.0997018591e-03    1.0120000000e+05
    6.1097373255e-03    1.0120000000e+05
    6.1197727919e-03    1.0120000000e+05
    6.1298147775e-03    1.0120000000e+05
    6.1398721300e-03    1.0120000000e+05
    6.1499509029e-03    1.0120000000e+05
    6.1597242020e-03    1.0120000000e+05
    6.1698164791e-03    1.0120000000e+05
    6.1799120158e-03    1.0120000000e+05
    6.1896853149e-03    1.0120000000e+05
    6.1997729354e-03    1.0120000000e+05
    6.2098698691e-03    1.0120000000e+05
    6.2199789099e-03    1.0120000000e+05
    6.2297875993e-03    1.0120000000e+05
    6.2399180606e-03    1.0120000000e+05
    6.2497369945e-03    1.0120000000e+05
    6.2598702498e-03    1.0120000000e+05
    6.2696840614e-03    1.0120000000e+05
    6.2798135914e-03    1.0120000000e+05
    6.2899496406e-03    1.0120000000e+05
    6.2997853383e-03    1.0120000000e+05
    6.3099432737e-03    1.0120000000e+05
    6.3197892159e-03    1.0120000000e+05
    6.3299559988e-03    1.0120000000e+05
    6.3398010097e-03    1.0120000000e+05
    6.3499626704e-03    1.0120000000e+05
    6.3598090783e-03    1.0120000000e+05
    6.3699842431e-03    1.0120000000e+05
    6.3798571937e-03    1.0120000000e+05
    6.3897348009e-03    1.0120000000e+05
    6.3999351114e-03    1.0120000000e+05
    6.4098178409e-03    1.0120000000e+05
    6.4197005704e-03    1.0120000000e+05
    6.4298929647e-03    1.0120000000e+05
    6.4397696406e-03    1.0120000000e+05
    6.4499736764e-03    1.0120000000e+05
    6.4598657191e-03    1.0120000000e+05
    6.4697610214e-03    1.0120000000e+05
    6.4799762331e-03    1.0120000000e+05
    6.4898747951e-03    1.0120000000e+05
    6.4997738227e-03    1.0120000000e+05
    6.5099913627e-03    1.0120000000e+05
    6.5198871307e-03    1.0120000000e+05
    6.5297805704e-03    1.0120000000e+05
    6.5399929881e-03    1.0120000000e+05
    6.5498882905e-03    1.0120000000e+05
    6.5597845241e-03    1.0120000000e+05
    6.5696835518e-03    1.0120000000e+05
    6.5798987634e-03    1.0120000000e+05
    6.5897977911e-03    1.0120000000e+05
    6.5996944904e-03    1.0120000000e+05
    6.6099097021e-03    1.0120000000e+05
    6.6198115237e-03    1.0120000000e+05
    6.6297156736e-03    1.0120000000e+05
    6.6399397328e-03    1.0120000000e+05
    6.6498420201e-03    1.0120000000e+05
    6.6597545519e-03    1.0120000000e+05
    6.6699893214e-03    1.0120000000e+05
    6.6799032502e-03    1.0120000000e+05
    6.6898297518e-03    1.0120000000e+05
    6.6997627728e-03    1.0120000000e+05
    6.7097055726e-03    1.0120000000e+05
    6.7199706100e-03    1.0120000000e+05
    6.7299180664e-03    1.0120000000e+05
    6.7398590036e-03    1.0120000000e+05
    6.7498143762e-03    1.0120000000e+05
    6.7597874440e-03    1.0120000000e+05
    6.7697619088e-03    1.0120000000e+05
    6.7797563970e-03    1.0120000000e+05
    6.7897597328e-03    1.0120000000e+05
    6.7997761071e-03    1.0120000000e+05
    6.8097934127e-03    1.0120000000e+05
    6.8198121153e-03    1.0120000000e+05
    6.8298298866e-03    1.0120000000e+05
    6.8398760632e-03    1.0120000000e+05
    6.8499459885e-03    1.0120000000e+05
    6.8596960045e-03    1.0120000000e+05
    6.8697771057e-03    1.0120000000e+05
    6.8798670545e-03    1.0120000000e+05
    6.8899639882e-03    1.0120000000e+05
    6.8997284397e-03    1.0120000000e+05
    6.9098300301e-03    1.0120000000e+05
    6.9199339487e-03    1.0120000000e+05
    6.9297221489e-03    1.0120000000e+05
    6.9398484193e-03    1.0120000000e+05
    6.9499718957e-03    1.0120000000e+05
    6.9598155096e-03    1.0120000000e+05
    6.9699170999e-03    1.0120000000e+05
    6.9799548946e-03    1.0120000000e+05
    6.9899023511e-03    1.0120000000e+05
    6.9997310638e-03    1.0120000000e+05
    7.0097898133e-03    1.0120000000e+05
    7.0196921006e-03    1.0120000000e+05
    7.0298044011e-03    1.0120000000e+05
    7.0397248492e-03    1.0120000000e+05
    7.0498380810e-03    1.0120000000e+05
    7.0597277954e-03    1.0120000000e+05
    7.0697925985e-03    1.0120000000e+05
    7.0795980282e-03    1.0120000000e+05
    7.0899911225e-03    1.0120000000e+05
    7.0996521972e-03    1.0120000000e+05
    7.1098655462e-03    1.0120000000e+05
    7.1197352372e-03    1.0120000000e+05
    7.1297013201e-03    1.0120000000e+05
    7.1397610009e-03    1.0120000000e+05
    7.1499184705e-03    1.0120000000e+05
    7.1596759371e-03    1.0120000000e+05
    7.1699735709e-03    1.0120000000e+05
    7.1798753925e-03    1.0120000000e+05
    7.1898251772e-03    1.0120000000e+05
    7.1998443455e-03    1.0120000000e+05
    7.2099510580e-03    1.0120000000e+05
    7.2196014225e-03    1.0120000000e+05
    7.2298222221e-03    1.0120000000e+05
    7.2396215983e-03    1.0120000000e+05
    7.2499439120e-03    1.0120000000e+05
    7.2598466650e-03    1.0120000000e+05
    7.2698257864e-03    1.0120000000e+05
    7.2798328474e-03    1.0120000000e+05
    7.2898543440e-03    1.0120000000e+05
    7.2995247319e-03    1.0120000000e+05
    7.3097501881e-03    1.0120000000e+05
    7.3199276812e-03    1.0120000000e+05
    7.3296786286e-03    1.0120000000e+05
    7.3395320214e-03    1.0120000000e+05
    7.3499684222e-03    1.0120000000e+05
    7.3598581366e-03    1.0120000000e+05
    7.3697972111e-03    1.0120000000e+05
    7.3797535151e-03    1.0120000000e+05
    7.3897466063e-03    1.0120000000e+05
    7.3998393491e-03    1.0120000000e+05
    7.4099539779e-03    1.0120000000e+05
    7.4195400812e-03    1.0120000000e+05
    7.4297273532e-03    1.0120000000e+05
    7.4399337173e-03    1.0120000000e+05
    7.4496529996e-03    1.0120000000e+05
    7.4599110521e-03    1.0120000000e+05
    7.4696629308e-03    1.0120000000e+05
    7.4798869900e-03    1.0120000000e+05
    7.4898866005e-03    1.0120000000e+05
    7.4999602512e-03    1.0120000000e+05
    7.5099281967e-03    1.0120000000e+05
    7.5197196566e-03    1.0120000000e+05
    7.5296917930e-03    1.0120000000e+05
    7.5396983884e-03    1.0120000000e+05
    7.5499266386e-03    1.0120000000e+05
    7.5598070398e-03    1.0120000000e+05
    7.5699430890e-03    1.0120000000e+05
    7.5799520127e-03    1.0120000000e+05
    7.5899190269e-03    1.0120000000e+05
    7.5998543762e-03    1.0120000000e+05
    7.6098456047e-03    1.0120000000e+05
    7.6199723408e-03    1.0120000000e+05
    7.6298932545e-03    1.0120000000e+05
    7.6398383826e-03    1.0120000000e+05
    7.6498608105e-03    1.0120000000e+05
    7.6598748565e-03    1.0120000000e+05
    7.6699429192e-03    1.0120000000e+05
    7.6798498631e-03    1.0120000000e+05
    7.6898429543e-03    1.0120000000e+05
    7.6998150907e-03    1.0120000000e+05
    7.7098426409e-03    1.0120000000e+05
    7.7198161744e-03    1.0120000000e+05
    7.7297971584e-03    1.0120000000e+05
    7.7399681322e-03    1.0120000000e+05
    7.7499123290e-03    1.0120000000e+05
    7.7598425560e-03    1.0120000000e+05
    7.7699576505e-03    1.0120000000e+05
    7.7797942795e-03    1.0120000000e+05
    7.7897715382e-03    1.0120000000e+05
    7.7998815104e-03    1.0120000000e+05
    7.8098718077e-03    1.0120000000e+05
    7.8199589625e-03    1.0120000000e+05
    7.8298784792e-03    1.0120000000e+05
    7.8398827463e-03    1.0120000000e+05
    7.8499419615e-03    1.0120000000e+05
    7.8598130494e-03    1.0120000000e+05
    7.8697409481e-03    1.0120000000e+05
    7.8799612820e-03    1.0120000000e+05
    7.8899767250e-03    1.0120000000e+05
    7.8997714445e-03    1.0120000000e+05
    7.9098474234e-03    1.0120000000e+05
    7.9199792817e-03    1.0120000000e+05
    7.9298671335e-03    1.0120000000e+05
    7.9397754744e-03    1.0120000000e+05
    7.9497322440e-03    1.0120000000e+05
    7.9599656165e-03    1.0120000000e+05
    7.9699512571e-03    1.0120000000e+05
    7.9799862579e-03    1.0120000000e+05
    7.9897381365e-03    1.0120000000e+05
    7.9997899011e-03    1.0120000000e+05
    8.0098854378e-03    1.0120000000e+05
    8.0199735239e-03    1.0120000000e+05
    8.0298185349e-03    1.0120000000e+05
    8.0399652943e-03    1.0120000000e+05
    8.0498391762e-03    1.0120000000e+05
    8.0597493798e-03    1.0120000000e+05
    8.0699510872e-03    1.0120000000e+05
    8.0798817798e-03    1.0120000000e+05
    8.0898432061e-03    1.0120000000e+05
    8.0998204648e-03    1.0120000000e+05
    8.1097995862e-03    1.0120000000e+05
    8.1198019907e-03    1.0120000000e+05
    8.1298211589e-03    1.0120000000e+05
    8.1398515031e-03    1.0120000000e+05
    8.1499023363e-03    1.0120000000e+05
    8.1599587575e-03    1.0120000000e+05
    8.1697441638e-03    1.0120000000e+05
    8.1798313186e-03    1.0120000000e+05
    8.1899268553e-03    1.0120000000e+05
    8.1997485831e-03    1.0120000000e+05
    8.2098618150e-03    1.0120000000e+05
    8.2199918106e-03    1.0120000000e+05
    8.2298498601e-03    1.0120000000e+05
    8.2399910316e-03    1.0120000000e+05
    8.2498639822e-03    1.0120000000e+05
    8.2597481087e-03    1.0120000000e+05
    8.2699246705e-03    1.0120000000e+05
    8.2798171788e-03    1.0120000000e+05
    8.2897208631e-03    1.0120000000e+05
    8.2999216393e-03    1.0120000000e+05
    8.3098467439e-03    1.0120000000e+05
    8.3197755739e-03    1.0120000000e+05
    8.3299912512e-03    1.0120000000e+05
    8.3399340510e-03    1.0120000000e+05
    8.3498852327e-03    1.0120000000e+05
    8.3598364145e-03    1.0120000000e+05
    8.3697922528e-03    1.0120000000e+05
    8.3797564730e-03    1.0120000000e+05
    8.3897337317e-03    1.0120000000e+05
    8.3999978378e-03    1.0120000000e+05
    8.4099760279e-03    1.0120000000e+05
    8.4199570119e-03    1.0120000000e+05
    8.4299417213e-03    1.0120000000e+05
    8.4399310872e-03    1.0120000000e+05
    8.4499176592e-03    1.0120000000e+05
    8.4599088877e-03    1.0120000000e+05
    8.4699094296e-03    1.0120000000e+05
    8.4799136966e-03    1.0120000000e+05
    8.4899198264e-03    1.0120000000e+05
    8.4999268875e-03    1.0120000000e+05
    8.5099339485e-03    1.0120000000e+05
    8.5199419409e-03    1.0120000000e+05
    8.5299499333e-03    1.0120000000e+05
    8.5399569944e-03    1.0120000000e+05
    8.5499649867e-03    1.0120000000e+05
    8.5599729791e-03    1.0120000000e+05
    8.5699819028e-03    1.0120000000e+05
    8.5799908265e-03    1.0120000000e+05
    8.5897156969e-03    1.0120000000e+05
    8.5997264832e-03    1.0120000000e+05
    8.6097382009e-03    1.0120000000e+05
    8.6197508499e-03    1.0120000000e+05
    8.6297634989e-03    1.0120000000e+05
    8.6397770792e-03    1.0120000000e+05
    8.6497915909e-03    1.0120000000e+05
    8.6598061025e-03    1.0120000000e+05
    8.6698215455e-03    1.0120000000e+05
    8.6798369884e-03    1.0120000000e+05
    8.6898524314e-03    1.0120000000e+05
    8.6998688057e-03    1.0120000000e+05
    8.7098861113e-03    1.0120000000e+05
    8.7199043483e-03    1.0120000000e+05
    8.7299244478e-03    1.0120000000e+05
    8.7399501354e-03    1.0120000000e+05
    8.7499814108e-03    1.0120000000e+05
    8.7597286329e-03    1.0120000000e+05
    8.7697617710e-03    1.0120000000e+05
    8.7797930464e-03    1.0120000000e+05
    8.7898233905e-03    1.0120000000e+05
    8.7998537347e-03    1.0120000000e+05
    8.8098831475e-03    1.0120000000e+05
    8.8199153543e-03    1.0120000000e+05
    8.8299522176e-03    1.0120000000e+05
    8.8399881497e-03    1.0120000000e+05
    8.8497381657e-03    1.0120000000e+05
    8.8597740978e-03    1.0120000000e+05
    8.8698100299e-03    1.0120000000e+05
    8.8798468933e-03    1.0120000000e+05
    8.8898837566e-03    1.0120000000e+05
    8.8999215513e-03    1.0120000000e+05
    8.9099602774e-03    1.0120000000e+05
    8.9199980721e-03    1.0120000000e+05
    8.9297490194e-03    1.0120000000e+05
    8.9397858828e-03    1.0120000000e+05
    8.9498236775e-03    1.0120000000e+05
    8.9598614722e-03    1.0120000000e+05
    8.9699001983e-03    1.0120000000e+05
    8.9799389243e-03    1.0120000000e+05
    8.9899776503e-03    1.0120000000e+05
    8.9997295290e-03    1.0120000000e+05
    9.0097682551e-03    1.0120000000e+05
    9.0198069811e-03    1.0120000000e+05
    9.0298466384e-03    1.0120000000e+05
    9.0398862958e-03    1.0120000000e+05
    9.0499259531e-03    1.0120000000e+05
    9.0599656105e-03    1.0120000000e+05
    9.0697174892e-03    1.0120000000e+05
    9.0797580779e-03    1.0120000000e+05
    9.0897977352e-03    1.0120000000e+05
    9.0998383239e-03    1.0120000000e+05
    9.1098789126e-03    1.0120000000e+05
    9.1199195012e-03    1.0120000000e+05
    9.1299600899e-03    1.0120000000e+05
    9.1397147626e-03    1.0120000000e+05
    9.1497553512e-03    1.0120000000e+05
    9.1597959399e-03    1.0120000000e+05
    9.1698374599e-03    1.0120000000e+05
    9.1798799112e-03    1.0120000000e+05
    9.1899214312e-03    1.0120000000e+05
    9.1999638826e-03    1.0120000000e+05
    9.2097194865e-03    1.0120000000e+05
    9.2197610065e-03    1.0120000000e+05
    9.2298043892e-03    1.0120000000e+05
    9.2398468405e-03    1.0120000000e+05
    9.2498902231e-03    1.0120000000e+05
    9.2599336058e-03    1.0120000000e+05
    9.2699769884e-03    1.0120000000e+05
    9.2797335237e-03    1.0120000000e+05
    9.2897769064e-03    1.0120000000e+05
    9.2998212203e-03    1.0120000000e+05
    9.3098655343e-03    1.0120000000e+05
    9.3199107796e-03    1.0120000000e+05
    9.3299560249e-03    1.0120000000e+05
    9.3397144228e-03    1.0120000000e+05
    9.3497605994e-03    1.0120000000e+05
    9.3598067760e-03    1.0120000000e+05
    9.3698529527e-03    1.0120000000e+05
    9.3798991293e-03    1.0120000000e+05
    9.3899453059e-03    1.0120000000e+05
    9.3999924138e-03    1.0120000000e+05
    9.4097526744e-03    1.0120000000e+05
    9.4197997823e-03    1.0120000000e+05
    9.4298468903e-03    1.0120000000e+05
    9.4398949295e-03    1.0120000000e+05
    9.4499429688e-03    1.0120000000e+05
    9.4599919394e-03    1.0120000000e+05
    9.4697540626e-03    1.0120000000e+05
    9.4798030332e-03    1.0120000000e+05
    9.4898529351e-03    1.0120000000e+05
    9.4999028370e-03    1.0120000000e+05
    9.5099527389e-03    1.0120000000e+05
    9.5197167248e-03    1.0120000000e+05
    9.5297675580e-03    1.0120000000e+05
    9.5398174599e-03    1.0120000000e+05
    9.5498692244e-03    1.0120000000e+05
    9.5599200577e-03    1.0120000000e+05
    9.5699718222e-03    1.0120000000e+05
    9.5797367394e-03    1.0120000000e+05
    9.5897894353e-03    1.0120000000e+05
    9.5998421311e-03    1.0120000000e+05
    9.6098957583e-03    1.0120000000e+05
    9.6199493855e-03    1.0120000000e+05
    9.6297161654e-03    1.0120000000e+05
    9.6397707239e-03    1.0120000000e+05
    9.6498243511e-03    1.0120000000e+05
    9.6598789096e-03    1.0120000000e+05
    9.6699334681e-03    1.0120000000e+05
    9.6799880266e-03    1.0120000000e+05
    9.6897566691e-03    1.0120000000e+05
    9.6998121589e-03    1.0120000000e+05
    9.7098685801e-03    1.0120000000e+05
    9.7199250013e-03    1.0120000000e+05
    9.7299823537e-03    1.0120000000e+05
    9.7397519276e-03    1.0120000000e+05
    9.7498102114e-03    1.0120000000e+05
    9.7598675638e-03    1.0120000000e+05
    9.7699258476e-03    1.0120000000e+05
    9.7799841315e-03    1.0120000000e+05
    9.7897555679e-03    1.0120000000e+05
    9.7998147830e-03    1.0120000000e+05
    9.8098739982e-03    1.0120000000e+05
    9.8199341446e-03    1.0120000000e+05
    9.8299942911e-03    1.0120000000e+05
    9.8397675902e-03    1.0120000000e+05
    9.8498277366e-03    1.0120000000e+05
    9.8598888144e-03    1.0120000000e+05
    9.8699498922e-03    1.0120000000e+05
    9.8797241226e-03    1.0120000000e+05
    9.8897861317e-03    1.0120000000e+05
    9.8998481408e-03    1.0120000000e+05
    9.9099101499e-03    1.0120000000e+05
    9.9199730903e-03    1.0120000000e+05
    9.9297491834e-03    1.0120000000e+05
    9.9398121238e-03    1.0120000000e+05
    9.9498750642e-03    1.0120000000e+05
    9.9599389359e-03    1.0120000000e+05
    9.9697159603e-03    1.0120000000e+05
    9.9797798321e-03    1.0120000000e+05
    9.9898446351e-03    1.0120000000e+05
    9.9999094382e-03    1.0120000000e+05
    1.0009975173e-02    1.0120000000e+05
    1.0019752197e-02    1.0120000000e+05
    1.0029817931e-02    1.0120000000e+05
    1.0039883666e-02    1.0120000000e+05
    1.0049950331e-02    1.0120000000e+05
    1.0059729218e-02    1.0120000000e+05
    1.0069795884e-02    1.0120000000e+05
    1.0079862550e-02    1.0120000000e+05
    1.0089929216e-02    1.0120000000e+05
    1.0099996813e-02    1.0120000000e+05
    1.0109776631e-02    1.0120000000e+05
    1.0119844228e-02    1.0120000000e+05
    1.0129912756e-02    1.0120000000e+05
    1.0139980353e-02    1.0120000000e+05
    1.0149761103e-02    1.0120000000e+05
    1.0159830563e-02    1.0120000000e+05
    1.0169899091e-02    1.0120000000e+05
    1.0179968551e-02    1.0120000000e+05
    1.0189750232e-02    1.0120000000e+05
    1.0199819691e-02    1.0120000000e+05
    1.0209889151e-02    1.0120000000e+05
    1.0219959542e-02    1.0120000000e+05
    1.0229741223e-02    1.0120000000e+05
    1.0239811614e-02    1.0120000000e+05
    1.0249882005e-02    1.0120000000e+05
    1.0259953327e-02    1.0120000000e+05
    1.0269735940e-02    1.0120000000e+05
    1.0279807262e-02    1.0120000000e+05
    1.0289878584e-02    1.0120000000e+05
    1.0299950838e-02    1.0120000000e+05
    1.0309734382e-02    1.0120000000e+05
    1.0319805704e-02    1.0120000000e+05
    1.0329877958e-02    1.0120000000e+05
    1.0339950211e-02    1.0120000000e+05
    1.0349734686e-02    1.0120000000e+05
    1.0359806940e-02    1.0120000000e+05
    1.0369880125e-02    1.0120000000e+05
    1.0379952379e-02    1.0120000000e+05
    1.0389737785e-02    1.0120000000e+05
    1.0399810970e-02    1.0120000000e+05
    1.0409884155e-02    1.0120000000e+05
    1.0419957340e-02    1.0120000000e+05
    1.0429742746e-02    1.0120000000e+05
    1.0439815931e-02    1.0120000000e+05
    1.0449890047e-02    1.0120000000e+05
    1.0459963232e-02    1.0120000000e+05
    1.0469749570e-02    1.0120000000e+05
    1.0479823686e-02    1.0120000000e+05
    1.0489897802e-02    1.0120000000e+05
    1.0499971919e-02    1.0120000000e+05
    1.0509758256e-02    1.0120000000e+05
    1.0519832373e-02    1.0120000000e+05
    1.0529907420e-02    1.0120000000e+05
    1.0539981537e-02    1.0120000000e+05
    1.0549767874e-02    1.0120000000e+05
    1.0559842922e-02    1.0120000000e+05
    1.0569917969e-02    1.0120000000e+05
    1.0579992086e-02    1.0120000000e+05
    1.0589779355e-02    1.0120000000e+05
    1.0599853471e-02    1.0120000000e+05
    1.0609928519e-02    1.0120000000e+05
    1.0619714856e-02    1.0120000000e+05
    1.0629789904e-02    1.0120000000e+05
    1.0639864951e-02    1.0120000000e+05
    1.0649939068e-02    1.0120000000e+05
    1.0659726337e-02    1.0120000000e+05
    1.0669801384e-02    1.0120000000e+05
    1.0679875501e-02    1.0120000000e+05
    1.0689950548e-02    1.0120000000e+05
    1.0699737817e-02    1.0120000000e+05
    1.0709811933e-02    1.0120000000e+05
    1.0719886981e-02    1.0120000000e+05
    1.0729962029e-02    1.0120000000e+05
    1.0739748366e-02    1.0120000000e+05
    1.0749823414e-02    1.0120000000e+05
    1.0759897530e-02    1.0120000000e+05
    1.0769972578e-02    1.0120000000e+05
    1.0779758915e-02    1.0120000000e+05
    1.0789833963e-02    1.0120000000e+05
    1.0799908079e-02    1.0120000000e+05
    1.0809982195e-02    1.0120000000e+05
    1.0819769464e-02    1.0120000000e+05
    1.0829843581e-02    1.0120000000e+05
    1.0839917697e-02    1.0120000000e+05
    1.0849992745e-02    1.0120000000e+05
    1.0859779082e-02    1.0120000000e+05
    1.0869853199e-02    1.0120000000e+05
    1.0879927315e-02    1.0120000000e+05
    1.0889713652e-02    1.0120000000e+05
    1.0899787769e-02    1.0120000000e+05
    1.0909861885e-02    1.0120000000e+05
    1.0919936001e-02    1.0120000000e+05
    1.0929722339e-02    1.0120000000e+05
    1.0939796455e-02    1.0120000000e+05
    1.0949870571e-02    1.0120000000e+05
    1.0959943756e-02    1.0120000000e+05
    1.0969730094e-02    1.0120000000e+05
    1.0979803279e-02    1.0120000000e+05
    1.0989877395e-02    1.0120000000e+05
    1.0999951512e-02    1.0120000000e+05
    1.1009736918e-02    1.0120000000e+05
    1.1019810103e-02    1.0120000000e+05
    1.1029884219e-02    1.0120000000e+05
    1.1039957404e-02    1.0120000000e+05
    1.1049743742e-02    1.0120000000e+05
    1.1059816927e-02    1.0120000000e+05
    1.1069891043e-02    1.0120000000e+05
    1.1079964228e-02    1.0120000000e+05
    1.1089750566e-02    1.0120000000e+05
    1.1099825613e-02    1.0120000000e+05
    1.1109900661e-02    1.0120000000e+05
    1.1119975708e-02    1.0120000000e+05
    1.1129762046e-02    1.0120000000e+05
    1.1139839888e-02    1.0120000000e+05
    1.1149917729e-02    1.0120000000e+05
    1.1159994639e-02    1.0120000000e+05
    1.1169784702e-02    1.0120000000e+05
    1.1179864407e-02    1.0120000000e+05
    1.1189945042e-02    1.0120000000e+05
    1.1199736968e-02    1.0120000000e+05
    1.1209817603e-02    1.0120000000e+05
    1.1219900101e-02    1.0120000000e+05
    1.1229984462e-02    1.0120000000e+05
    1.1239781044e-02    1.0120000000e+05
    1.1249864474e-02    1.0120000000e+05
    1.1259948835e-02    1.0120000000e+05
    1.1269749142e-02    1.0120000000e+05
    1.1279838160e-02    1.0120000000e+05
    1.1289925314e-02    1.0120000000e+05
    1.1299724691e-02    1.0120000000e+05
    1.1309814639e-02    1.0120000000e+05
    1.1319908313e-02    1.0120000000e+05
    1.1329715140e-02    1.0120000000e+05
    1.1339810677e-02    1.0120000000e+05
    1.1349908076e-02    1.0120000000e+05
    1.1359717697e-02    1.0120000000e+05
    1.1369816028e-02    1.0120000000e+05
    1.1379914358e-02    1.0120000000e+05
    1.1389726773e-02    1.0120000000e+05
    1.1399830692e-02    1.0120000000e+05
    1.1409934610e-02    1.0120000000e+05
    1.1419748887e-02    1.0120000000e+05
    1.1429852806e-02    1.0120000000e+05
    1.1439961381e-02    1.0120000000e+05
    1.1449784972e-02    1.0120000000e+05
    1.1459897272e-02    1.0120000000e+05
    1.1469720863e-02    1.0120000000e+05
    1.1479835026e-02    1.0120000000e+05
    1.1489952914e-02    1.0120000000e+05
    1.1499783956e-02    1.0120000000e+05
    1.1509907432e-02    1.0120000000e+05
    1.1519744992e-02    1.0120000000e+05
    1.1529872194e-02    1.0120000000e+05
    1.1539710686e-02    1.0120000000e+05
    1.1549839750e-02    1.0120000000e+05
    1.1559971608e-02    1.0120000000e+05
    1.1569819413e-02    1.0120000000e+05
    1.1579957791e-02    1.0120000000e+05
    1.1589806527e-02    1.0120000000e+05
    1.1599943973e-02    1.0120000000e+05
    1.1609795503e-02    1.0120000000e+05
    1.1619945057e-02    1.0120000000e+05
    1.1629807763e-02    1.0120000000e+05
    1.1639961973e-02    1.0120000000e+05
    1.1649825610e-02    1.0120000000e+05
    1.1659980752e-02    1.0120000000e+05
    1.1669850908e-02    1.0120000000e+05
    1.1679722928e-02    1.0120000000e+05
    1.1689890176e-02    1.0120000000e+05
    1.1699769646e-02    1.0120010156e+05
    1.1709939688e-02    1.0126614844e+05
    1.1719821952e-02    1.1624114844e+05
    1.1729997583e-02    1.4363850000e+05
    1.1739887297e-02    1.4325281250e+05
    1.1749782600e-02    1.4303370312e+05
    1.1759970337e-02    1.4283912500e+05
    1.1769866571e-02    1.4265545312e+05
    1.1779763736e-02    1.4247365625e+05
    1.1789956130e-02    1.4228771875e+05
    1.1799863540e-02    1.4210784375e+05
    1.1809775606e-02    1.4192798438e+05
    1.1819981039e-02    1.4174360938e+05
    1.1829894036e-02    1.4156548438e+05
    1.1839809828e-02    1.4138792188e+05
    1.1849728413e-02    1.4121045312e+05
    1.1859945953e-02    1.4102853125e+05
    1.1869875714e-02    1.4085265625e+05
    1.1879804544e-02    1.4067723438e+05
    1.1889735237e-02    1.4050204688e+05
    1.1899956502e-02    1.4032270312e+05
    1.1909892783e-02    1.4014918750e+05
    1.1919836514e-02    1.3997579688e+05
    1.1929784901e-02    1.3980278125e+05
    1.1939735152e-02    1.3963078125e+05
    1.1949976906e-02    1.3945431250e+05
    1.1959929019e-02    1.3928307812e+05
    1.1969882995e-02    1.3911264062e+05
    1.1979841627e-02    1.3894285938e+05
    1.1989803985e-02    1.3877303125e+05
    1.1999765411e-02    1.3860453125e+05
    1.2009727769e-02    1.3843684375e+05
    1.2019985355e-02    1.3826317188e+05
    1.2029956095e-02    1.3809581250e+05
    1.2039930560e-02    1.3793026562e+05
    1.2049908750e-02    1.3776426562e+05
    1.2059886009e-02    1.3759731250e+05
    1.2069863267e-02    1.3743245312e+05
    1.2079844251e-02    1.3726932812e+05
    1.2089832686e-02    1.3710468750e+05
    1.2099825777e-02    1.3693998438e+05
    1.2109823525e-02    1.3677785938e+05
    1.2119819410e-02    1.3661593750e+05
    1.2129814364e-02    1.3645339062e+05
    1.2139811181e-02    1.3629160938e+05
    1.2149816379e-02    1.3613112500e+05
    1.2159829028e-02    1.3597089062e+05
    1.2169842608e-02    1.3581040625e+05
    1.2179856189e-02    1.3565109375e+05
    1.2189866975e-02    1.3549245312e+05
    1.2199881487e-02    1.3533393750e+05
    1.2209905311e-02    1.3517590625e+05
    1.2219932862e-02    1.3501859375e+05
    1.2229964137e-02    1.3486157812e+05
    1.2239991687e-02    1.3470501562e+05
    1.2249726802e-02    1.3455382812e+05
    1.2259756215e-02    1.3439851562e+05
    1.2269792147e-02    1.3424339062e+05
    1.2279837392e-02    1.3408892188e+05
    1.2289884500e-02    1.3393496875e+05
    1.2299931608e-02    1.3378128125e+05
    1.2309977785e-02    1.3362829688e+05
    1.2319731526e-02    1.3348040625e+05
    1.2329789810e-02    1.3332814062e+05
    1.2339852750e-02    1.3317637500e+05
    1.2349918485e-02    1.3302531250e+05
    1.2359980494e-02    1.3287459375e+05
    1.2369750068e-02    1.3272873438e+05
    1.2379821390e-02    1.3257906250e+05
    1.2389898300e-02    1.3242956250e+05
    1.2399978936e-02    1.3228051562e+05
    1.2409765273e-02    1.3213685938e+05
    1.2419848703e-02    1.3198901562e+05
    1.2429931201e-02    1.3184095312e+05
    1.2439720333e-02    1.3169829688e+05
    1.2449813075e-02    1.3155239062e+05
    1.2459910475e-02    1.3140606250e+05
    1.2469711713e-02    1.3126400000e+05
    1.2479805388e-02    1.3111917188e+05
    1.2489901856e-02    1.3097512500e+05
    1.2499704026e-02    1.3083453125e+05
    1.2509809807e-02    1.3069021094e+05
    1.2519918382e-02    1.3054755469e+05
    1.2529728934e-02    1.3040900781e+05
    1.2539837509e-02    1.3026590625e+05
    1.2549944222e-02    1.3012391406e+05
    1.2559745461e-02    1.2998710156e+05
    1.2569840066e-02    1.2984624219e+05
    1.2579928152e-02    1.2970569531e+05
    1.2589710765e-02    1.2957021094e+05
    1.2599783950e-02    1.2943116406e+05
    1.2609849684e-02    1.2929241406e+05
    1.2619909830e-02    1.2915442969e+05
    1.2629964389e-02    1.2901696094e+05
    1.2639760971e-02    1.2888338281e+05
    1.2649745680e-02    1.2874785156e+05
    1.2659929693e-02    1.2861003906e+05
    1.2669994496e-02    1.2847421875e+05
    1.2679923326e-02    1.2834078125e+05
    1.2689695694e-02    1.2820983594e+05
    1.2699960731e-02    1.2807268750e+05
    1.2709718198e-02    1.2794283594e+05
    1.2719964609e-02    1.2780686719e+05
    1.2729657814e-02    1.2767864844e+05
    1.2739834376e-02    1.2754453906e+05
    1.2749767862e-02    1.2741397656e+05
    1.2759816833e-02    1.2728236719e+05
    1.2769939378e-02    1.2715027344e+05
    1.2779744342e-02    1.2702260156e+05
    1.2789724395e-02    1.2689212500e+05
    1.2799989432e-02    1.2675947656e+05
    1.2809997424e-02    1.2663064844e+05
    1.2819721363e-02    1.2650583594e+05
    1.2829787098e-02    1.2637665625e+05
    1.2839877047e-02    1.2624777344e+05
    1.2849985622e-02    1.2611967969e+05
    1.2859803624e-02    1.2599521094e+05
    1.2869926170e-02    1.2586677344e+05
    1.2879758142e-02    1.2574311719e+05
    1.2889893726e-02    1.2561643750e+05
    1.2899736874e-02    1.2549288281e+05
    1.2909883633e-02    1.2536571875e+05
    1.2919737026e-02    1.2524375000e+05
    1.2929892167e-02    1.2511836719e+05
    1.2939753011e-02    1.2499599219e+05
    1.2949915603e-02    1.2487066406e+05
    1.2959781103e-02    1.2475007031e+05
    1.2969948351e-02    1.2462572656e+05
    1.2979817577e-02    1.2450513281e+05
    1.2989986688e-02    1.2438163281e+05
    1.2999857776e-02    1.2426215625e+05
    1.3009728864e-02    1.2414289844e+05
    1.3019898906e-02    1.2402049219e+05
    1.3029769994e-02    1.2390210156e+05
    1.3039940037e-02    1.2378049219e+05
    1.3049810193e-02    1.2366283594e+05
    1.3059980236e-02    1.2354202344e+05
    1.3069850393e-02    1.2342512500e+05
    1.3079720549e-02    1.2330860156e+05
    1.3089889660e-02    1.2318896875e+05
    1.3099759817e-02    1.2307321094e+05
    1.3109928928e-02    1.2295433594e+05
    1.3119798154e-02    1.2283933594e+05
    1.3129966334e-02    1.2272121094e+05
    1.3139835559e-02    1.2260696094e+05
    1.3149703853e-02    1.2249307031e+05
    1.3159872033e-02    1.2237610156e+05
    1.3169740327e-02    1.2226293750e+05
    1.3179907575e-02    1.2214667969e+05
    1.3189774938e-02    1.2203424219e+05
    1.3199941255e-02    1.2191886719e+05
    1.3209808618e-02    1.2180725000e+05
    1.3219974004e-02    1.2169240625e+05
    1.3229841366e-02    1.2158122656e+05
    1.3239707798e-02    1.2147078125e+05
    1.3249872252e-02    1.2135741406e+05
    1.3259737752e-02    1.2124718750e+05
    1.3269902207e-02    1.2113405469e+05
    1.3279767707e-02    1.2102528906e+05
    1.3289931230e-02    1.2091335156e+05
    1.3299795799e-02    1.2080428906e+05
    1.3309958391e-02    1.2069274219e+05
    1.3319822960e-02    1.2058546094e+05
    1.3329985552e-02    1.2047468750e+05
    1.3339848258e-02    1.2036710156e+05
    1.3349710964e-02    1.2026047656e+05
    1.3359872624e-02    1.2015114844e+05
    1.3369735330e-02    1.2004483594e+05
    1.3379896060e-02    1.1993571094e+05
    1.3389758766e-02    1.1983046094e+05
    1.3399918564e-02    1.1972218750e+05
    1.3409780338e-02    1.1961733594e+05
    1.3419940136e-02    1.1950981250e+05
    1.3429800980e-02    1.1940572656e+05
    1.3439959846e-02    1.1929878906e+05
    1.3449819759e-02    1.1919539844e+05
    1.3459978625e-02    1.1908916406e+05
    1.3469838537e-02    1.1898639844e+05
    1.3479997404e-02    1.1888084375e+05
    1.3489856385e-02    1.1877871094e+05
    1.3499716297e-02    1.1867690625e+05
    1.3509873301e-02    1.1857235156e+05
    1.3519732282e-02    1.1847119531e+05
    1.3529890217e-02    1.1836728906e+05
    1.3539748266e-02    1.1826677344e+05
    1.3549906202e-02    1.1816353125e+05
    1.3559764251e-02    1.1806363281e+05
    1.3569921255e-02    1.1796100781e+05
    1.3579779305e-02    1.1786171875e+05
    1.3589936309e-02    1.1775978125e+05
    1.3599795289e-02    1.1766119531e+05
    1.3609952293e-02    1.1755985156e+05
    1.3619810343e-02    1.1746171094e+05
    1.3629968278e-02    1.1736105469e+05
    1.3639828190e-02    1.1726377344e+05
    1.3649988919e-02    1.1716353906e+05
    1.3659851626e-02    1.1706652344e+05
    1.3669714332e-02    1.1697025000e+05
    1.3679875992e-02    1.1687124219e+05
    1.3689740561e-02    1.1677482031e+05
    1.3699905947e-02    1.1667615625e+05
    1.3709775172e-02    1.1658122656e+05
    1.3719947077e-02    1.1648310156e+05
    1.3729820959e-02    1.1638783594e+05
    1.3739995658e-02    1.1629060156e+05
    1.3749871403e-02    1.1619657031e+05
    1.3759747148e-02    1.1610233594e+05
    1.3769921847e-02    1.1600566406e+05
    1.3779797591e-02    1.1591243750e+05
    1.3789973222e-02    1.1581646094e+05
    1.3799850829e-02    1.1572350781e+05
    1.3809729367e-02    1.1563097656e+05
    1.3819909655e-02    1.1553588281e+05
    1.3829790056e-02    1.1544381250e+05
    1.3839972205e-02    1.1534928906e+05
    1.3849855401e-02    1.1525782031e+05
    1.3859740458e-02    1.1516660156e+05
    1.3869926333e-02    1.1507291406e+05
    1.3879813254e-02    1.1498227344e+05
    1.3889702037e-02    1.1489188281e+05
    1.3899891637e-02    1.1479902344e+05
    1.3909782283e-02    1.1470915625e+05
    1.3919973746e-02    1.1461685156e+05
    1.3929866254e-02    1.1452756250e+05
    1.3939760625e-02    1.1443847656e+05
    1.3949955814e-02    1.1434696094e+05
    1.3959852047e-02    1.1425843750e+05
    1.3969749212e-02    1.1417017969e+05
    1.3979947194e-02    1.1407953125e+05
    1.3989846222e-02    1.1399174219e+05
    1.3999746181e-02    1.1390413281e+05
    1.4009946957e-02    1.1381422656e+05
    1.4019847848e-02    1.1372741406e+05
    1.4029749669e-02    1.1364075781e+05
    1.4039952308e-02    1.1355150000e+05
    1.4049855061e-02    1.1346532031e+05
    1.4059757814e-02    1.1337966406e+05
    1.4069962315e-02    1.1329128125e+05
    1.4079866931e-02    1.1320556250e+05
    1.4089772478e-02    1.1312065625e+05
    1.4099977911e-02    1.1303346875e+05
    1.4109883457e-02    1.1294853906e+05
    1.4119789004e-02    1.1286411719e+05
    1.4129995368e-02    1.1277783594e+05
    1.4139901847e-02    1.1269396094e+05
    1.4149809256e-02    1.1261012500e+05
    1.4159716666e-02    1.1252689844e+05
    1.4169923961e-02    1.1244139844e+05
    1.4179831371e-02    1.1235833594e+05
    1.4189739712e-02    1.1227553906e+05
    1.4199947938e-02    1.1219052344e+05
    1.4209856279e-02    1.1210813281e+05
    1.4219764620e-02    1.1202621875e+05
    1.4229972847e-02    1.1194241406e+05
    1.4239881188e-02    1.1186127344e+05
    1.4249790460e-02    1.1177991406e+05
    1.4259699732e-02    1.1169855469e+05
    1.4269909821e-02    1.1161536719e+05
    1.4279820025e-02    1.1153533594e+05
    1.4289730228e-02    1.1145521875e+05
    1.4299940318e-02    1.1137258594e+05
    1.4309851453e-02    1.1129303906e+05
    1.4319761656e-02    1.1121402344e+05
    1.4329972677e-02    1.1113246094e+05
    1.4339883812e-02    1.1105361719e+05
    1.4349794947e-02    1.1097533594e+05
    1.4359707013e-02    1.1089713281e+05
    1.4369918965e-02    1.1081674219e+05
    1.4379831031e-02    1.1073902344e+05
    1.4389743097e-02    1.1066141406e+05
    1.4399955980e-02    1.1058171094e+05
    1.4409868978e-02    1.1050449219e+05
    1.4419781975e-02    1.1042718750e+05
    1.4429996721e-02    1.1034778125e+05
    1.4439910650e-02    1.1027116406e+05
    1.4449824579e-02    1.1019441406e+05
    1.4459739439e-02    1.1011746094e+05
    1.4469955117e-02    1.1003878125e+05
    1.4479869977e-02    1.0996296094e+05
    1.4489785768e-02    1.0988681250e+05
    1.4499701560e-02    1.0981078906e+05
    1.4509919100e-02    1.0973328906e+05
    1.4519835822e-02    1.0965836719e+05
    1.4529752545e-02    1.0958347656e+05
    1.4539971016e-02    1.0950690625e+05
    1.4549889602e-02    1.0943310156e+05
    1.4559808187e-02    1.0935953906e+05
    1.4569727704e-02    1.0928640625e+05
    1.4579948038e-02    1.0921153125e+05
    1.4589867555e-02    1.0913914844e+05
    1.4599788003e-02    1.0906708594e+05
    1.4609709382e-02    1.0899528906e+05
    1.4619931579e-02    1.0892150000e+05
    1.4629852958e-02    1.0885000000e+05
    1.4639776200e-02    1.0877855469e+05
    1.4650000259e-02    1.0870493750e+05
    1.4659923501e-02    1.0863344531e+05
    1.4669848606e-02    1.0856186719e+05
    1.4679773711e-02    1.0849021875e+05
    1.4689999633e-02    1.0841635156e+05
    1.4699925669e-02    1.0834462500e+05
    1.4709852636e-02    1.0827290625e+05
    1.4719780535e-02    1.0820128125e+05
    1.4729708433e-02    1.0812983594e+05
    1.4739937149e-02    1.0805641406e+05
    1.4749866910e-02    1.0798537500e+05
    1.4759796672e-02    1.0791458594e+05
    1.4769727364e-02    1.0784417969e+05
    1.4779959805e-02    1.0777214844e+05
    1.4789891429e-02    1.0770249219e+05
    1.4799823985e-02    1.0763300000e+05
    1.4809756540e-02    1.0756405469e+05
    1.4819991775e-02    1.0749377344e+05
    1.4829926193e-02    1.0742575000e+05
    1.4839860611e-02    1.0735782031e+05
    1.4849796891e-02    1.0729066406e+05
    1.4859733172e-02    1.0722408594e+05
    1.4869971201e-02    1.0715533594e+05
    1.4879909344e-02    1.0708897656e+05
    1.4889847487e-02    1.0702346875e+05
    1.4899786562e-02    1.0695796094e+05
    1.4909726568e-02    1.0689227344e+05
    1.4919968322e-02    1.0682509375e+05
    1.4929909259e-02    1.0676016406e+05
    1.4939851128e-02    1.0669500000e+05
    1.4949793927e-02    1.0662987500e+05
    1.4959737659e-02    1.0656491406e+05
    1.4969983138e-02    1.0649785156e+05
    1.4979927801e-02    1.0643272656e+05
    1.4989873394e-02    1.0636765625e+05
    1.4999819919e-02    1.0630258594e+05
    1.5009766445e-02    1.0623752344e+05
    1.5019714832e-02    1.0617258594e+05
    1.5029964037e-02    1.0610578125e+05
    1.5039913356e-02    1.0604108594e+05
    1.5049863607e-02    1.0597653906e+05
    1.5059813857e-02    1.0591218750e+05
    1.5069765039e-02    1.0584800781e+05
    1.5079717152e-02    1.0578402344e+05
    1.5089971945e-02    1.0571828906e+05
    1.5099924989e-02    1.0565471094e+05
    1.5109878965e-02    1.0559133594e+05
    1.5119833872e-02    1.0552814844e+05
    1.5129789710e-02    1.0546512500e+05
    1.5139746480e-02    1.0540228906e+05
    1.5149703249e-02    1.0533977344e+05
    1.5159962699e-02    1.0527559375e+05
    1.5169921331e-02    1.0521332031e+05
    1.5179879963e-02    1.0515119531e+05
    1.5189840458e-02    1.0508958594e+05
    1.5199800953e-02    1.0502828906e+05
    1.5209762380e-02    1.0496687500e+05
    1.5219724737e-02    1.0490569531e+05
    1.5229989775e-02    1.0484336719e+05
    1.5239953063e-02    1.0478291406e+05
    1.5249917284e-02    1.0472235156e+05
    1.5259881504e-02    1.0466246094e+05
    1.5269847587e-02    1.0460303906e+05
    1.5279813670e-02    1.0454334375e+05
    1.5289780684e-02    1.0448387500e+05
    1.5299748629e-02    1.0442503906e+05
    1.5309717506e-02    1.0436625000e+05
    1.5319989063e-02    1.0430564844e+05
    1.5329958871e-02    1.0424719531e+05
    1.5339929610e-02    1.0418893750e+05
    1.5349900350e-02    1.0413067969e+05
    1.5359872952e-02    1.0407260156e+05
    1.5369845554e-02    1.0401467969e+05
    1.5379818156e-02    1.0395681250e+05
    1.5389792621e-02    1.0389907031e+05
    1.5399767086e-02    1.0384144531e+05
    1.5409742482e-02    1.0378391406e+05
    1.5419718809e-02    1.0372652344e+05
    1.5429997817e-02    1.0366753906e+05
    1.5439976007e-02    1.0361041406e+05
    1.5449954197e-02    1.0355346875e+05
    1.5459932387e-02    1.0349666406e+05
    1.5469912440e-02    1.0344006250e+05
    1.5479892492e-02    1.0338366406e+05
    1.5489872545e-02    1.0332746094e+05
    1.5499854460e-02    1.0327139844e+05
    1.5509836376e-02    1.0321546094e+05
    1.5519819222e-02    1.0315977344e+05
    1.5529802069e-02    1.0310434375e+05
    1.5539785847e-02    1.0304902344e+05
    1.5549770556e-02    1.0299371875e+05
    1.5559756197e-02    1.0293871094e+05
    1.5569741838e-02    1.0288405469e+05
    1.5579728410e-02    1.0282937500e+05
    1.5589714982e-02    1.0277460156e+05
    1.5599702485e-02    1.0272024219e+05
    1.5609993599e-02    1.0266457031e+05
    1.5619982034e-02    1.0261034375e+05
    1.5629971400e-02    1.0255628906e+05
    1.5639960766e-02    1.0250275000e+05
    1.5649951994e-02    1.0244916406e+05
    1.5659943223e-02    1.0239546094e+05
    1.5669934452e-02    1.0234225781e+05
    1.5679925680e-02    1.0228928906e+05
    1.5689918771e-02    1.0223621094e+05
    1.5699911863e-02    1.0218337500e+05
    1.5709906816e-02    1.0213085156e+05
    1.5719899908e-02    1.0207835156e+05
    1.5729894862e-02    1.0202602344e+05
    1.5739889815e-02    1.0197391406e+05
    1.5749886632e-02    1.0192192969e+05
    1.5759881586e-02    1.0187008594e+05
    1.5769878402e-02    1.0181841406e+05
    1.5779877082e-02    1.0176689844e+05
    1.5789873898e-02    1.0171549219e+05
    1.5799872577e-02    1.0166424219e+05
    1.5809871256e-02    1.0161310156e+05
    1.5819869936e-02    1.0156210156e+05
    1.5829870477e-02    1.0151124219e+05
    1.5839871019e-02    1.0146052344e+05
    1.5849871561e-02    1.0140996094e+05
    1.5859872103e-02    1.0135953906e+05
    1.5869872645e-02    1.0130922656e+05
    1.5879875049e-02    1.0125899219e+05
    1.5889877453e-02    1.0120893750e+05
    1.5899879858e-02    1.0115909375e+05
    1.5909882262e-02    1.0110931250e+05
    1.5919886529e-02    1.0105952344e+05
    1.5929890797e-02    1.0100991406e+05
    1.5939895064e-02    1.0096060156e+05
    1.5949899331e-02    1.0091125000e+05
    1.5959903598e-02    1.0086182031e+05
    1.5969909728e-02    1.0081283594e+05
    1.5979915857e-02    1.0076415625e+05
    1.5989920124e-02    1.0071521875e+05
    1.5999928117e-02    1.0066635156e+05
    1.6009934247e-02    1.0061813281e+05
    1.6019940376e-02    1.0056991406e+05
    1.6029948369e-02    1.0052146094e+05
    1.6039956361e-02    1.0047346875e+05
    1.6049964353e-02    1.0042585156e+05
    1.6059972346e-02    1.0037810156e+05
    1.6069980338e-02    1.0033053906e+05
    1.6079990193e-02    1.0028341406e+05
    1.6089998186e-02    1.0023637500e+05
    1.6099704430e-02    1.0019089844e+05
    1.6109714285e-02    1.0014433594e+05
    1.6119724140e-02    1.0009797656e+05
    1.6129733995e-02    1.0005178125e+05
    1.6139745712e-02    1.0000587500e+05
    1.6149755567e-02    9.9960164062e+04
    1.6159767285e-02    9.9914648438e+04
    1.6169779003e-02    9.9869335938e+04
    1.6179788858e-02    9.9824156250e+04
    1.6189800575e-02    9.9779125000e+04
    1.6199814156e-02    9.9734218750e+04
    1.6209825873e-02    9.9689414062e+04
    1.6219837591e-02    9.9644750000e+04
    1.6229849309e-02    9.9600148438e+04
    1.6239862889e-02    9.9555523438e+04
    1.6249874607e-02    9.9510812500e+04
    1.6259886324e-02    9.9466164062e+04
    1.6269899905e-02    9.9421687500e+04
    1.6279913485e-02    9.9377218750e+04
    1.6289927065e-02    9.9332601562e+04
    1.6299940646e-02    9.9288085938e+04
    1.6309954226e-02    9.9243804688e+04
    1.6319967806e-02    9.9199500000e+04
    1.6329983249e-02    9.9155093750e+04
    1.6339996830e-02    9.9111117188e+04
    1.6349708661e-02    9.9068789062e+04
    1.6359722242e-02    9.9024882812e+04
    1.6369737685e-02    9.8981148438e+04
    1.6379753128e-02    9.8938070312e+04
    1.6389766708e-02    9.8894976562e+04
    1.6399782151e-02    9.8851695312e+04
    1.6409797594e-02    9.8808992188e+04
    1.6419813037e-02    9.8766601562e+04
    1.6429828480e-02    9.8724023438e+04
    1.6439843923e-02    9.8681664062e+04
    1.6449859366e-02    9.8639710938e+04
    1.6459874809e-02    9.8597726562e+04
    1.6469890252e-02    9.8555851562e+04
    1.6479905695e-02    9.8514273438e+04
    1.6489921138e-02    9.8472773438e+04
    1.6499936581e-02    9.8431375000e+04
    1.6509952024e-02    9.8390210938e+04
    1.6519969329e-02    9.8349164062e+04
    1.6529984772e-02    9.8308273438e+04
    1.6539696604e-02    9.8268781250e+04
    1.6549712047e-02    9.8228210938e+04
    1.6559729353e-02    9.8187757812e+04
    1.6569744796e-02    9.8147476562e+04
    1.6579760239e-02    9.8107351562e+04
    1.6589775681e-02    9.8067398438e+04
    1.6599792987e-02    9.8027531250e+04
    1.6609808430e-02    9.7987664062e+04
    1.6619823873e-02    9.7947789062e+04
    1.6629839316e-02    9.7908039062e+04
    1.6639854759e-02    9.7868414062e+04
    1.6649870202e-02    9.7828710938e+04
    1.6659885645e-02    9.7788851562e+04
    1.6669901088e-02    9.7749117188e+04
    1.6679916531e-02    9.7709523438e+04
    1.6689931974e-02    9.7669757812e+04
    1.6699947417e-02    9.7630023438e+04
    1.6709962860e-02    9.7590757812e+04
    1.6719978303e-02    9.7551585938e+04
    1.6729993746e-02    9.7512148438e+04
    1.6739705577e-02    9.7474312500e+04
    1.6749721020e-02    9.7436000000e+04
    1.6759736463e-02    9.7397601562e+04
    1.6769751906e-02    9.7359289062e+04
    1.6779765487e-02    9.7321679688e+04
    1.6789780930e-02    9.7284320312e+04
    1.6799796373e-02    9.7246976562e+04
    1.6809809953e-02    9.7210039062e+04
    1.6819825396e-02    9.7173382812e+04
    1.6829838976e-02    9.7136726562e+04
    1.6839854419e-02    9.7100210938e+04
    1.6849868000e-02    9.7063757812e+04
    1.6859883443e-02    9.7027226562e+04
    1.6869897023e-02    9.6990648438e+04
    1.6879910603e-02    9.6953976562e+04
    1.6889926046e-02    9.6917156250e+04
    1.6899939626e-02    9.6880242188e+04
    1.6909953207e-02    9.6843226562e+04
    1.6919966787e-02    9.6806148438e+04
    1.6929980367e-02    9.6769070312e+04
    1.6939993948e-02    9.6732062500e+04
    1.6949703917e-02    9.6696320312e+04
    1.6959717497e-02    9.6659664062e+04
    1.6969731078e-02    9.6623257812e+04
    1.6979744658e-02    9.6587132812e+04
    1.6989758238e-02    9.6551367188e+04
    1.6999771819e-02    9.6516007812e+04
    1.7009785399e-02    9.6481000000e+04
    1.7019797117e-02    9.6446210938e+04
    1.7029810697e-02    9.6411687500e+04
    1.7039824277e-02    9.6377539062e+04
    1.7049835995e-02    9.6343601562e+04
    1.7059849575e-02    9.6309648438e+04
    1.7069861293e-02    9.6275781250e+04
    1.7079874873e-02    9.6242156250e+04
    1.7089886591e-02    9.6208273438e+04
    1.7099898309e-02    9.6174007812e+04
    1.7109911889e-02    9.6139968750e+04
    1.7119923607e-02    9.6105960938e+04
    1.7129935324e-02    9.6071398438e+04
    1.7139947042e-02    9.6036757812e+04
    1.7149958760e-02    9.6002468750e+04
    1.7159970477e-02    9.5967968750e+04
    1.7169982195e-02    9.5933414062e+04
    1.7179993913e-02    9.5899289062e+04
    1.7189703882e-02    9.5866375000e+04
    1.7199713737e-02    9.5832601562e+04
    1.7209725454e-02    9.5799289062e+04
    1.7219737172e-02    9.5766312500e+04
    1.7229748890e-02    9.5733664062e+04
    1.7239760607e-02    9.5701414062e+04
    1.7249770463e-02    9.5669460938e+04
    1.7259782180e-02    9.5637742188e+04
    1.7269793898e-02    9.5606226562e+04
    1.7279803753e-02    9.5574843750e+04
    1.7289815471e-02    9.5543476562e+04
    1.7299825326e-02    9.5512039062e+04
    1.7309837043e-02    9.5480429688e+04
    1.7319846898e-02    9.5448617188e+04
    1.7329856753e-02    9.5416664062e+04
    1.7339868471e-02    9.5384570312e+04
    1.7349878326e-02    9.5352289062e+04
    1.7359890044e-02    9.5319882812e+04
    1.7369899899e-02    9.5287523438e+04
    1.7379911616e-02    9.5255273438e+04
    1.7389921471e-02    9.5223117188e+04
    1.7399933189e-02    9.5191320312e+04
    1.7409944907e-02    9.5160101562e+04
    1.7419958487e-02    9.5129195312e+04
    1.7429972067e-02    9.5098531250e+04
    1.7439985648e-02    9.5068570312e+04
    1.7449697480e-02    9.5040023438e+04
    1.7459714785e-02    9.5010468750e+04
    1.7469730228e-02    9.4981062500e+04
    1.7479747534e-02    9.4952164062e+04
    1.7489764839e-02    9.4923000000e+04
    1.7499782145e-02    9.4893242188e+04
    1.7509799451e-02    9.4863562500e+04
    1.7519818619e-02    9.4833679688e+04
    1.7529835925e-02    9.4803164062e+04
    1.7539855093e-02    9.4772570312e+04
    1.7549876124e-02    9.4742031250e+04
    1.7559897155e-02    9.4711351562e+04
    1.7569918185e-02    9.4680898438e+04
    1.7579939216e-02    9.4650851562e+04
    1.7589958385e-02    9.4621148438e+04
    1.7599979416e-02    9.4591937500e+04
    1.7609696835e-02    9.4564156250e+04
    1.7619716004e-02    9.4535929688e+04
    1.7629735172e-02    9.4508101562e+04
    1.7639754340e-02    9.4480585938e+04
    1.7649771646e-02    9.4453210938e+04
    1.7659788951e-02    9.4425914062e+04
    1.7669802532e-02    9.4398460938e+04
    1.7679814249e-02    9.4370648438e+04
    1.7689822242e-02    9.4342539062e+04
    1.7699822783e-02    9.4314210938e+04
    1.7709815875e-02    9.4285585938e+04
    1.7719803378e-02    9.4256726562e+04
    1.7729785293e-02    9.4227945312e+04
    1.7739761621e-02    9.4199343750e+04
    1.7749734223e-02    9.4170914062e+04
    1.7759703100e-02    9.4142960938e+04
    1.7769975588e-02    9.4114835938e+04
    1.7779985443e-02    9.4087789062e+04
    1.7789982259e-02    9.4061125000e+04
    1.7799824476e-02    9.4035531250e+04
    1.7809981480e-02    9.4009398438e+04
    1.7819821835e-02    9.3983914062e+04
    1.7829695717e-02    9.3958437500e+04
    1.7839888111e-02    9.3932125000e+04
    1.7849775031e-02    9.3906210938e+04
    1.7859987915e-02    9.3879031250e+04
    1.7869889736e-02    9.3852429688e+04
    1.7879797146e-02    9.3825679688e+04
    1.7889708281e-02    9.3798789062e+04
    1.7899947241e-02    9.3770914062e+04
    1.7909869552e-02    9.3744179688e+04
    1.7919795588e-02    9.3717906250e+04
    1.7929727212e-02    9.3691968750e+04
    1.7939982936e-02    9.3665593750e+04
    1.7949920148e-02    9.3640742188e+04
    1.7959862947e-02    9.3616281250e+04
    1.7969807610e-02    9.3591812500e+04
    1.7979754135e-02    9.3567585938e+04
    1.7989704385e-02    9.3543492188e+04
    1.7999976873e-02    9.3518210938e+04
    1.8009930849e-02    9.3493406250e+04
    1.8019888550e-02    9.3468476562e+04
    1.8029846251e-02    9.3443226562e+04
    1.8039805815e-02    9.3417710938e+04
    1.8049767241e-02    9.3392210938e+04
    1.8059728667e-02    9.3366875000e+04
    1.8069693819e-02    9.3341773438e+04
    1.8079979345e-02    9.3316156250e+04
    1.8089946359e-02    9.3291820312e+04
    1.8099913374e-02    9.3268101562e+04
    1.8109880388e-02    9.3244601562e+04
    1.8119849265e-02    9.3221226562e+04
    1.8129818141e-02    9.3198351562e+04
    1.8139788881e-02    9.3175445312e+04
    1.8149757758e-02    9.3152117188e+04
    1.8159728497e-02    9.3128664062e+04
    1.8169699237e-02    9.3105070312e+04
    1.8179992214e-02    9.3080406250e+04
    1.8189962953e-02    9.3056398438e+04
    1.8199935555e-02    9.3032398438e+04
    1.8209906295e-02    9.3008507812e+04
    1.8219877034e-02    9.2984914062e+04
    1.8229849637e-02    9.2961679688e+04
    1.8239820376e-02    9.2938843750e+04
    1.8249792978e-02    9.2916398438e+04
    1.8259763718e-02    9.2894187500e+04
    1.8269734457e-02    9.2872187500e+04
    1.8279705197e-02    9.2850398438e+04
    1.8289998174e-02    9.2827781250e+04
    1.8299970776e-02    9.2805554688e+04
    1.8309941515e-02    9.2783226562e+04
    1.8319912255e-02    9.2760820312e+04
    1.8329882994e-02    9.2738148438e+04
    1.8339853734e-02    9.2715460938e+04
    1.8349824473e-02    9.2693023438e+04
    1.8359795213e-02    9.2670710938e+04
    1.8369765952e-02    9.2648664062e+04
    1.8379736692e-02    9.2627148438e+04
    1.8389707431e-02    9.2605882812e+04
    1.8400000408e-02    9.2584085938e+04
    1.8409969285e-02    9.2563179688e+04
    1.8419940025e-02    9.2542335938e+04
    1.8429910764e-02    9.2521437500e+04
    1.8439879641e-02    9.2500375000e+04
    1.8449850380e-02    9.2479156250e+04
    1.8459821120e-02    9.2458000000e+04
    1.8469789997e-02    9.2436804688e+04
    1.8479760736e-02    9.2415492188e+04
    1.8489729613e-02    9.2394476562e+04
    1.8499700353e-02    9.2373750000e+04
    1.8509991467e-02    9.2352398438e+04
    1.8519960344e-02    9.2332039062e+04
    1.8529929221e-02    9.2312062500e+04
    1.8539898098e-02    9.2292031250e+04
    1.8549868837e-02    9.2272039062e+04
    1.8559837714e-02    9.2252304688e+04
    1.8569806591e-02    9.2232523438e+04
    1.8579775468e-02    9.2212531250e+04
    1.8589744344e-02    9.2192429688e+04
    1.8599713221e-02    9.2172398438e+04
    1.8609682098e-02    9.2152554688e+04
    1.8619971350e-02    9.2132039062e+04
    1.8629940227e-02    9.2112226562e+04
    1.8639909104e-02    9.2092789062e+04
    1.8649877980e-02    9.2073601562e+04
    1.8659846857e-02    9.2054460938e+04
    1.8669815734e-02    9.2035523438e+04
    1.8679784611e-02    9.2016726562e+04
    1.8689751625e-02    9.1997789062e+04
    1.8699720502e-02    9.1978804688e+04
    1.8709689379e-02    9.1960031250e+04
    1.8719978631e-02    9.1940585938e+04
    1.8729947507e-02    9.1921593750e+04
    1.8739916384e-02    9.1902773438e+04
    1.8749885261e-02    9.1884250000e+04
    1.8759852275e-02    9.1865812500e+04
    1.8769821152e-02    9.1847429688e+04
    1.8779790029e-02    9.1829242188e+04
    1.8789758906e-02    9.1811210938e+04
    1.8799727783e-02    9.1793226562e+04
    1.8809696659e-02    9.1775281250e+04
    1.8819985911e-02    9.1756835938e+04
    1.8829956651e-02    9.1739023438e+04
    1.8839925528e-02    9.1721125000e+04
    1.8849894404e-02    9.1703335938e+04
    1.8859865144e-02    9.1685757812e+04
    1.8869834021e-02    9.1668085938e+04
    1.8879804760e-02    9.1650414062e+04
    1.8889775500e-02    9.1633101562e+04
    1.8899746239e-02    9.1615960938e+04
    1.8909716979e-02    9.1598781250e+04
    1.8919687718e-02    9.1581750000e+04
    1.8929980695e-02    9.1564250000e+04
    1.8939951435e-02    9.1547226562e+04
    1.8949924037e-02    9.1530335938e+04
    1.8959896639e-02    9.1513476562e+04
    1.8969869241e-02    9.1496648438e+04
    1.8979841843e-02    9.1479968750e+04
    1.8989814445e-02    9.1463382812e+04
    1.8999787048e-02    9.1446914062e+04
    1.9009759650e-02    9.1430554688e+04
    1.9019732252e-02    9.1414101562e+04
    1.9029706717e-02    9.1397851562e+04
    1.9039679319e-02    9.1381898438e+04
    1.9049976021e-02    9.1365273438e+04
    1.9059948623e-02    9.1349148438e+04
    1.9069923088e-02    9.1333343750e+04
    1.9079897553e-02    9.1317523438e+04
    1.9089872018e-02    9.1301593750e+04
    1.9099846482e-02    9.1285929688e+04
    1.9109820947e-02    9.1270375000e+04
    1.9119795412e-02    9.1254750000e+04
    1.9129769877e-02    9.1239335938e+04
    1.9139744341e-02    9.1224117188e+04
    1.9149718806e-02    9.1208898438e+04
    1.9159693271e-02    9.1193625000e+04
    1.9169989973e-02    9.1177914062e+04
    1.9179964438e-02    9.1162960938e+04
    1.9189938903e-02    9.1148085938e+04
    1.9199913368e-02    9.1133070312e+04
    1.9209889695e-02    9.1118210938e+04
    1.9219864160e-02    9.1103625000e+04
    1.9229838625e-02    9.1088937500e+04
    1.9239813089e-02    9.1074273438e+04
    1.9249789417e-02    9.1059898438e+04
    1.9259763882e-02    9.1045492188e+04
    1.9269738346e-02    9.1031023438e+04
    1.9279712811e-02    9.1016835938e+04
    1.9289689139e-02    9.1002773438e+04
    1.9299985841e-02    9.0988148438e+04
    1.9309960306e-02    9.0974031250e+04
    1.9319934770e-02    9.0960148438e+04
    1.9329909235e-02    9.0946406250e+04
    1.9339885563e-02    9.0932601562e+04
    1.9349860027e-02    9.0918789062e+04
    1.9359834492e-02    9.0905226562e+04
    1.9369810820e-02    9.0891835938e+04
    1.9379785284e-02    9.0878304688e+04
    1.9389759749e-02    9.0864843750e+04
    1.9399734214e-02    9.0851632812e+04
    1.9409710541e-02    9.0838406250e+04
    1.9419685006e-02    9.0825164062e+04
    1.9429981709e-02    9.0811757812e+04
    1.9439956173e-02    9.0798835938e+04
[...]
    1.1513970792e-01    1.0120575000e+05
    1.1514981836e-01    1.0120574219e+05
    1.1515993625e-01    1.0120574219e+05
    1.1516971886e-01    1.0120574219e+05
    1.1517983675e-01    1.0120572656e+05
    1.1518994719e-01    1.0120572656e+05
    1.1519973725e-01    1.0120572656e+05
    1.1520984769e-01    1.0120572656e+05
    1.1521996558e-01    1.0120572656e+05
    1.1522975564e-01    1.0120572656e+05
    1.1523986608e-01    1.0120572656e+05
    1.1524998397e-01    1.0120572656e+05
    1.1525976658e-01    1.0120572656e+05
    1.1526988447e-01    1.0120572656e+05
    1.1527999490e-01    1.0120572656e+05
    1.1528978497e-01    1.0120572656e+05
    1.1529989541e-01    1.0120572656e+05
    1.1530968547e-01    1.0120571875e+05
    1.1531979591e-01    1.0120571875e+05
    1.1532991379e-01    1.0120571875e+05
    1.1533970386e-01    1.0120571875e+05
    1.1534981430e-01    1.0120571094e+05
    1.1535993218e-01    1.0120571094e+05
    1.1536971480e-01    1.0120571094e+05
    1.1537983268e-01    1.0120571094e+05
    1.1538994312e-01    1.0120571094e+05
    1.1539973319e-01    1.0120571094e+05
    1.1540984362e-01    1.0120571094e+05
    1.1541996151e-01    1.0120571094e+05
    1.1542975157e-01    1.0120571094e+05
    1.1543986201e-01    1.0120571094e+05
    1.1544997990e-01    1.0120569531e+05
    1.1545976251e-01    1.0120569531e+05
    1.1546988040e-01    1.0120569531e+05
    1.1547999084e-01    1.0120569531e+05
    1.1548978090e-01    1.0120569531e+05
    1.1549989134e-01    1.0120569531e+05
    1.1550968140e-01    1.0120568750e+05
    1.1551979929e-01    1.0120568750e+05
    1.1552990973e-01    1.0120568750e+05
    1.1553969979e-01    1.0120568750e+05
    1.1554981023e-01    1.0120568750e+05
    1.1555992812e-01    1.0120568750e+05
    1.1556971073e-01    1.0120567969e+05
    1.1557982862e-01    1.0120567969e+05
    1.1558993906e-01    1.0120567969e+05
    1.1559972912e-01    1.0120567969e+05
    1.1560983956e-01    1.0120566406e+05
    1.1561995745e-01    1.0120566406e+05
    1.1562974751e-01    1.0120566406e+05
    1.1563985795e-01    1.0120566406e+05
    1.1564997584e-01    1.0120566406e+05
    1.1565975845e-01    1.0120566406e+05
    1.1566987634e-01    1.0120566406e+05
    1.1567998677e-01    1.0120566406e+05
    1.1568977684e-01    1.0120566406e+05
    1.1569988728e-01    1.0120566406e+05
    1.1570967734e-01    1.0120565625e+05
    1.1571979523e-01    1.0120565625e+05
    1.1572990566e-01    1.0120565625e+05
    1.1573969573e-01    1.0120565625e+05
    1.1574980617e-01    1.0120565625e+05
    1.1575992405e-01    1.0120564844e+05
    1.1576970667e-01    1.0120564844e+05
    1.1577982455e-01    1.0120564844e+05
    1.1578993499e-01    1.0120564844e+05
    1.1579972506e-01    1.0120564844e+05
    1.1580983549e-01    1.0120564844e+05
    1.1581995338e-01    1.0120564844e+05
    1.1582974344e-01    1.0120564844e+05
    1.1583985388e-01    1.0120564844e+05
    1.1584997177e-01    1.0120564844e+05
    1.1585975438e-01    1.0120564844e+05
    1.1586987227e-01    1.0120563281e+05
    1.1587998271e-01    1.0120563281e+05
    1.1588977277e-01    1.0120563281e+05
    1.1589988321e-01    1.0120563281e+05
    1.1590967327e-01    1.0120563281e+05
    1.1591979116e-01    1.0120562500e+05
    1.1592990160e-01    1.0120562500e+05
    1.1593969166e-01    1.0120562500e+05
    1.1594980210e-01    1.0120562500e+05
    1.1595991999e-01    1.0120561719e+05
    1.1596970260e-01    1.0120561719e+05
    1.1597982049e-01    1.0120561719e+05
    1.1598993093e-01    1.0120561719e+05
    1.1599972099e-01    1.0120561719e+05
    1.1600983888e-01    1.0120561719e+05
    1.1601994932e-01    1.0120560156e+05
    1.1602973938e-01    1.0120560156e+05
    1.1603984982e-01    1.0120560156e+05
    1.1604996771e-01    1.0120560156e+05
    1.1605975032e-01    1.0120560156e+05
    1.1606986821e-01    1.0120560156e+05
    1.1607997864e-01    1.0120560156e+05
    1.1608976871e-01    1.0120560156e+05
    1.1609988660e-01    1.0120560156e+05
    1.1610999703e-01    1.0120560156e+05
    1.1611978710e-01    1.0120559375e+05
    1.1612989753e-01    1.0120559375e+05
    1.1613968760e-01    1.0120559375e+05
    1.1614979804e-01    1.0120559375e+05
    1.1615991592e-01    1.0120559375e+05
    1.1616970599e-01    1.0120559375e+05
    1.1617981642e-01    1.0120559375e+05
    1.1618992686e-01    1.0120558594e+05
    1.1619971693e-01    1.0120558594e+05
    1.1620983481e-01    1.0120558594e+05
    1.1621994525e-01    1.0120558594e+05
    1.1622973531e-01    1.0120558594e+05
    1.1623984575e-01    1.0120558594e+05
    1.1624996364e-01    1.0120558594e+05
    1.1625975370e-01    1.0120558594e+05
    1.1626986414e-01    1.0120558594e+05
    1.1627997458e-01    1.0120558594e+05
    1.1628976464e-01    1.0120557031e+05
    1.1629988253e-01    1.0120557031e+05
    1.1630999297e-01    1.0120557031e+05
    1.1631978303e-01    1.0120557031e+05
    1.1632989347e-01    1.0120557031e+05
    1.1633968353e-01    1.0120556250e+05
    1.1634979397e-01    1.0120556250e+05
    1.1635991186e-01    1.0120556250e+05
    1.1636970192e-01    1.0120555469e+05
    1.1637981236e-01    1.0120555469e+05
    1.1638993025e-01    1.0120555469e+05
    1.1639971286e-01    1.0120555469e+05
    1.1640983075e-01    1.0120555469e+05
    1.1641994119e-01    1.0120555469e+05
    1.1642973125e-01    1.0120555469e+05
    1.1643984169e-01    1.0120553906e+05
    1.1644995958e-01    1.0120553906e+05
    1.1645974964e-01    1.0120553906e+05
    1.1646986008e-01    1.0120553906e+05
    1.1647997797e-01    1.0120553906e+05
    1.1648976058e-01    1.0120553906e+05
    1.1649987847e-01    1.0120553906e+05
    1.1650998890e-01    1.0120553906e+05
    1.1651977897e-01    1.0120553906e+05
    1.1652988940e-01    1.0120553906e+05
    1.1653967947e-01    1.0120553125e+05
    1.1654979736e-01    1.0120553125e+05
    1.1655990779e-01    1.0120553125e+05
    1.1656969786e-01    1.0120553125e+05
    1.1657980829e-01    1.0120553125e+05
    1.1658992618e-01    1.0120552344e+05
    1.1659971625e-01    1.0120552344e+05
    1.1660982668e-01    1.0120552344e+05
    1.1661993712e-01    1.0120552344e+05
    1.1662972718e-01    1.0120552344e+05
    1.1663984507e-01    1.0120552344e+05
    1.1664995551e-01    1.0120552344e+05
    1.1665974557e-01    1.0120552344e+05
    1.1666985601e-01    1.0120552344e+05
    1.1667997390e-01    1.0120552344e+05
    1.1668975651e-01    1.0120552344e+05
    1.1669987440e-01    1.0120550781e+05
    1.1670998484e-01    1.0120550781e+05
    1.1671977490e-01    1.0120550781e+05
    1.1672989279e-01    1.0120550781e+05
    1.1673967540e-01    1.0120550781e+05
    1.1674979329e-01    1.0120550781e+05
    1.1675990373e-01    1.0120550000e+05
    1.1676969379e-01    1.0120550000e+05
    1.1677980423e-01    1.0120550000e+05
    1.1678992212e-01    1.0120549219e+05
    1.1679971218e-01    1.0120549219e+05
    1.1680982262e-01    1.0120549219e+05
    1.1681994051e-01    1.0120549219e+05
    1.1682972312e-01    1.0120549219e+05
    1.1683984101e-01    1.0120549219e+05
    1.1684995145e-01    1.0120549219e+05
    1.1685974151e-01    1.0120549219e+05
    1.1686985940e-01    1.0120549219e+05
    1.1687996984e-01    1.0120547656e+05
    1.1688975990e-01    1.0120547656e+05
    1.1689987034e-01    1.0120547656e+05
    1.1690998822e-01    1.0120547656e+05
    1.1691977084e-01    1.0120547656e+05
    1.1692988873e-01    1.0120547656e+05
    1.1693967879e-01    1.0120547656e+05
    1.1694978923e-01    1.0120546875e+05
    1.1695990711e-01    1.0120546875e+05
    1.1696968973e-01    1.0120546875e+05
    1.1697980762e-01    1.0120546875e+05
    1.1698991805e-01    1.0120546875e+05
    1.1699970812e-01    1.0120546875e+05
    1.1700981855e-01    1.0120546875e+05
    1.1701993644e-01    1.0120546875e+05
    1.1702972651e-01    1.0120546094e+05
    1.1703983694e-01    1.0120546094e+05
    1.1704995483e-01    1.0120546094e+05
    1.1705973744e-01    1.0120546094e+05
    1.1706985533e-01    1.0120546094e+05
    1.1707996577e-01    1.0120546094e+05
    1.1708975583e-01    1.0120546094e+05
    1.1709986627e-01    1.0120546094e+05
    1.1710998416e-01    1.0120546094e+05
    1.1711977422e-01    1.0120546094e+05
    1.1712988466e-01    1.0120544531e+05
    1.1714000255e-01    1.0120544531e+05
    1.1714978516e-01    1.0120544531e+05
    1.1715990305e-01    1.0120544531e+05
    1.1716968566e-01    1.0120544531e+05
    1.1717980355e-01    1.0120544531e+05
    1.1718991399e-01    1.0120544531e+05
    1.1719970405e-01    1.0120543750e+05
    1.1720982194e-01    1.0120543750e+05
    1.1721993238e-01    1.0120543750e+05
    1.1722972244e-01    1.0120543750e+05
    1.1723983288e-01    1.0120542969e+05
    1.1724995077e-01    1.0120542969e+05
    1.1725973338e-01    1.0120542969e+05
    1.1726985127e-01    1.0120542969e+05
    1.1727996171e-01    1.0120542969e+05
    1.1728975177e-01    1.0120541406e+05
    1.1729986966e-01    1.0120541406e+05
    1.1730998009e-01    1.0120541406e+05
    1.1731977016e-01    1.0120541406e+05
    1.1732988060e-01    1.0120541406e+05
    1.1733999848e-01    1.0120541406e+05
    1.1734978110e-01    1.0120541406e+05
    1.1735989898e-01    1.0120541406e+05
    1.1736968905e-01    1.0120541406e+05
    1.1737979949e-01    1.0120541406e+05
    1.1738991737e-01    1.0120541406e+05
    1.1739969999e-01    1.0120540625e+05
    1.1740981787e-01    1.0120540625e+05
    1.1741992831e-01    1.0120540625e+05
    1.1742971838e-01    1.0120540625e+05
    1.1743982881e-01    1.0120540625e+05
    1.1744994670e-01    1.0120539844e+05
    1.1745973676e-01    1.0120539844e+05
    1.1746984720e-01    1.0120539844e+05
    1.1747996509e-01    1.0120539844e+05
    1.1748974770e-01    1.0120539844e+05
    1.1749986559e-01    1.0120539844e+05
    1.1750997603e-01    1.0120539844e+05
    1.1751976609e-01    1.0120539844e+05
    1.1752987653e-01    1.0120539844e+05
    1.1753999442e-01    1.0120539844e+05
    1.1754978448e-01    1.0120539844e+05
    1.1755989492e-01    1.0120539844e+05
    1.1756968498e-01    1.0120538281e+05
    1.1757979542e-01    1.0120538281e+05
    1.1758991331e-01    1.0120538281e+05
    1.1759970337e-01    1.0120538281e+05
    1.1760981381e-01    1.0120538281e+05
    1.1761993170e-01    1.0120537500e+05
    1.1762971431e-01    1.0120537500e+05
    1.1763983220e-01    1.0120537500e+05
    1.1764994264e-01    1.0120537500e+05
    1.1765973270e-01    1.0120537500e+05
    1.1766984314e-01    1.0120536719e+05
    1.1767996103e-01    1.0120536719e+05
    1.1768975109e-01    1.0120536719e+05
    1.1769986153e-01    1.0120536719e+05
    1.1770997941e-01    1.0120536719e+05
    1.1771976203e-01    1.0120536719e+05
    1.1772987992e-01    1.0120535156e+05
    1.1773999035e-01    1.0120535156e+05
    1.1774978042e-01    1.0120535156e+05
    1.1775989085e-01    1.0120535156e+05
    1.1776968092e-01    1.0120535156e+05
    1.1777979881e-01    1.0120535156e+05
    1.1778990924e-01    1.0120535156e+05
    1.1779969931e-01    1.0120535156e+05
    1.1780980974e-01    1.0120535156e+05
    1.1781992763e-01    1.0120535156e+05
    1.1782971025e-01    1.0120535156e+05
    1.1783982813e-01    1.0120534375e+05
    1.1784993857e-01    1.0120534375e+05
    1.1785972863e-01    1.0120534375e+05
    1.1786984652e-01    1.0120534375e+05
    1.1787995696e-01    1.0120534375e+05
    1.1788974702e-01    1.0120533594e+05
    1.1789985746e-01    1.0120533594e+05
    1.1790997535e-01    1.0120533594e+05
    1.1791975796e-01    1.0120533594e+05
    1.1792987585e-01    1.0120533594e+05
    1.1793998629e-01    1.0120533594e+05
    1.1794977635e-01    1.0120533594e+05
    1.1795989424e-01    1.0120533594e+05
    1.1796967685e-01    1.0120533594e+05
    1.1797979474e-01    1.0120533594e+05
    1.1798990518e-01    1.0120533594e+05
    1.1799969524e-01    1.0120532031e+05
    1.1800981313e-01    1.0120532031e+05
    1.1801992357e-01    1.0120532031e+05
    1.1802971363e-01    1.0120532031e+05
    1.1803982407e-01    1.0120532031e+05
    1.1804994196e-01    1.0120532031e+05
    1.1805972457e-01    1.0120531250e+05
    1.1806984246e-01    1.0120531250e+05
    1.1807995290e-01    1.0120531250e+05
    1.1808974296e-01    1.0120531250e+05
    1.1809986085e-01    1.0120531250e+05
    1.1810997128e-01    1.0120531250e+05
    1.1811976135e-01    1.0120530469e+05
    1.1812987179e-01    1.0120530469e+05
    1.1813998967e-01    1.0120530469e+05
    1.1814977229e-01    1.0120530469e+05
    1.1815989017e-01    1.0120530469e+05
    1.1816968024e-01    1.0120528906e+05
    1.1817979068e-01    1.0120528906e+05
    1.1818990856e-01    1.0120528906e+05
    1.1819969118e-01    1.0120528906e+05
    1.1820980906e-01    1.0120528906e+05
    1.1821991950e-01    1.0120528906e+05
    1.1822970957e-01    1.0120528906e+05
    1.1823982000e-01    1.0120528906e+05
    1.1824993789e-01    1.0120528906e+05
    1.1825972795e-01    1.0120528906e+05
    1.1826983839e-01    1.0120528906e+05
    1.1827995628e-01    1.0120528906e+05
    1.1828973889e-01    1.0120528125e+05
    1.1829985678e-01    1.0120528125e+05
    1.1830996722e-01    1.0120528125e+05
    1.1831975728e-01    1.0120528125e+05
    1.1832986772e-01    1.0120528125e+05
    1.1833998561e-01    1.0120527344e+05
    1.1834977567e-01    1.0120527344e+05
    1.1835988611e-01    1.0120527344e+05
    1.1836967617e-01    1.0120527344e+05
    1.1837978661e-01    1.0120527344e+05
    1.1838990450e-01    1.0120527344e+05
    1.1839969456e-01    1.0120527344e+05
    1.1840980500e-01    1.0120527344e+05
    1.1841992289e-01    1.0120527344e+05
    1.1842970550e-01    1.0120525781e+05
    1.1843982339e-01    1.0120525781e+05
    1.1844993383e-01    1.0120525781e+05
    1.1845972389e-01    1.0120525781e+05
    1.1846983433e-01    1.0120525781e+05
    1.1847995222e-01    1.0120525781e+05
    1.1848974228e-01    1.0120525781e+05
    1.1849985272e-01    1.0120525781e+05
    1.1850997061e-01    1.0120525781e+05
    1.1851975322e-01    1.0120525000e+05
    1.1852987111e-01    1.0120525000e+05
    1.1853998154e-01    1.0120525000e+05
    1.1854977161e-01    1.0120525000e+05
    1.1855988204e-01    1.0120524219e+05
    1.1856999993e-01    1.0120524219e+05
    1.1857979000e-01    1.0120524219e+05
    1.1858990043e-01    1.0120522656e+05
    1.1859969050e-01    1.0120522656e+05
    1.1860980093e-01    1.0120522656e+05
    1.1861991882e-01    1.0120522656e+05
    1.1862970144e-01    1.0120522656e+05
    1.1863981932e-01    1.0120522656e+05
    1.1864992976e-01    1.0120522656e+05
    1.1865971982e-01    1.0120522656e+05
    1.1866983771e-01    1.0120522656e+05
    1.1867994815e-01    1.0120522656e+05
    1.1868973821e-01    1.0120522656e+05
    1.1869984865e-01    1.0120522656e+05
    1.1870996654e-01    1.0120522656e+05
    1.1871975660e-01    1.0120522656e+05
    1.1872986704e-01    1.0120521875e+05
    1.1873997748e-01    1.0120521875e+05
    1.1874976754e-01    1.0120521875e+05
    1.1875988543e-01    1.0120521875e+05
    1.1876999587e-01    1.0120521875e+05
    1.1877978593e-01    1.0120521875e+05
    1.1878989637e-01    1.0120521875e+05
    1.1879968643e-01    1.0120521875e+05
    1.1880980432e-01    1.0120521094e+05
    1.1881991476e-01    1.0120521094e+05
    1.1882970482e-01    1.0120521094e+05
    1.1883981526e-01    1.0120521094e+05
    1.1884993315e-01    1.0120521094e+05
    1.1885971576e-01    1.0120521094e+05
    1.1886983365e-01    1.0120521094e+05
    1.1887994409e-01    1.0120521094e+05
    1.1888973415e-01    1.0120521094e+05
    1.1889985204e-01    1.0120521094e+05
    1.1890996248e-01    1.0120519531e+05
    1.1891975254e-01    1.0120519531e+05
    1.1892986298e-01    1.0120519531e+05
    1.1893998086e-01    1.0120519531e+05
    1.1894976348e-01    1.0120519531e+05
    1.1895988137e-01    1.0120519531e+05
    1.1896999180e-01    1.0120519531e+05
    1.1897978187e-01    1.0120518750e+05
    1.1898989975e-01    1.0120518750e+05
    1.1899968237e-01    1.0120518750e+05
    1.1900980026e-01    1.0120518750e+05
    1.1901991069e-01    1.0120517969e+05
    1.1902970076e-01    1.0120517969e+05
    1.1903981864e-01    1.0120517969e+05
    1.1904992908e-01    1.0120517969e+05
    1.1905971915e-01    1.0120517969e+05
    1.1906982958e-01    1.0120517969e+05
    1.1907994747e-01    1.0120517969e+05
    1.1908973008e-01    1.0120517969e+05
    1.1909984797e-01    1.0120516406e+05
    1.1910995841e-01    1.0120516406e+05
    1.1911974847e-01    1.0120516406e+05
    1.1912986636e-01    1.0120516406e+05
    1.1913997680e-01    1.0120516406e+05
    1.1914976686e-01    1.0120516406e+05
    1.1915987730e-01    1.0120516406e+05
    1.1916999519e-01    1.0120516406e+05
    1.1917977780e-01    1.0120516406e+05
    1.1918989569e-01    1.0120515625e+05
    1.1919968575e-01    1.0120515625e+05
    1.1920979619e-01    1.0120515625e+05
    1.1921991408e-01    1.0120515625e+05
    1.1922969669e-01    1.0120515625e+05
    1.1923981458e-01    1.0120515625e+05
    1.1924992502e-01    1.0120515625e+05
    1.1925971508e-01    1.0120514844e+05
    1.1926982552e-01    1.0120514844e+05
    1.1927994341e-01    1.0120514844e+05
    1.1928973347e-01    1.0120514844e+05
    1.1929984391e-01    1.0120514844e+05
    1.1930996180e-01    1.0120514844e+05
    1.1931974441e-01    1.0120514844e+05
    1.1932986230e-01    1.0120514844e+05
    1.1933997273e-01    1.0120514844e+05
    1.1934976280e-01    1.0120514844e+05
    1.1935988069e-01    1.0120514844e+05
    1.1936999112e-01    1.0120514844e+05
    1.1937978119e-01    1.0120513281e+05
    1.1938989162e-01    1.0120513281e+05
    1.1939968169e-01    1.0120513281e+05
    1.1940979213e-01    1.0120513281e+05
    1.1941991001e-01    1.0120513281e+05
    1.1942970008e-01    1.0120513281e+05
    1.1943981051e-01    1.0120512500e+05
    1.1944992840e-01    1.0120512500e+05
    1.1945971102e-01    1.0120512500e+05
    1.1946982890e-01    1.0120512500e+05
    1.1947993934e-01    1.0120512500e+05
    1.1948972940e-01    1.0120511719e+05
    1.1949983984e-01    1.0120511719e+05
    1.1950995773e-01    1.0120511719e+05
    1.1951974779e-01    1.0120511719e+05
    1.1952985823e-01    1.0120511719e+05
    1.1953997612e-01    1.0120510156e+05
    1.1954975873e-01    1.0120510156e+05
    1.1955987662e-01    1.0120510156e+05
    1.1956998706e-01    1.0120510156e+05
    1.1957977712e-01    1.0120510156e+05
    1.1958989501e-01    1.0120510156e+05
    1.1959967762e-01    1.0120510156e+05
    1.1960979551e-01    1.0120510156e+05
    1.1961990595e-01    1.0120510156e+05
    1.1962969601e-01    1.0120510156e+05
    1.1963980645e-01    1.0120510156e+05
    1.1964992434e-01    1.0120510156e+05
    1.1965971440e-01    1.0120509375e+05
    1.1966982484e-01    1.0120509375e+05
    1.1967994273e-01    1.0120509375e+05
    1.1968972534e-01    1.0120509375e+05
    1.1969984323e-01    1.0120509375e+05
    1.1970995367e-01    1.0120509375e+05
    1.1971974373e-01    1.0120508594e+05
    1.1972986162e-01    1.0120508594e+05
    1.1973997205e-01    1.0120508594e+05
    1.1974976212e-01    1.0120508594e+05
    1.1975987256e-01    1.0120508594e+05
    1.1976999044e-01    1.0120508594e+05
    1.1977977306e-01    1.0120508594e+05
    1.1978989094e-01    1.0120508594e+05
    1.1979968101e-01    1.0120508594e+05
    1.1980979145e-01    1.0120508594e+05
    1.1981990933e-01    1.0120508594e+05
    1.1982969195e-01    1.0120508594e+05
    1.1983980983e-01    1.0120507031e+05
    1.1984992027e-01    1.0120507031e+05
    1.1985971034e-01    1.0120507031e+05
    1.1986982822e-01    1.0120507031e+05
    1.1987993866e-01    1.0120507031e+05
    1.1988972872e-01    1.0120507031e+05
    1.1989983916e-01    1.0120507031e+05
    1.1990995705e-01    1.0120506250e+05
    1.1991973966e-01    1.0120506250e+05
    1.1992985755e-01    1.0120506250e+05
    1.1993996799e-01    1.0120506250e+05
    1.1994975805e-01    1.0120506250e+05
    1.1995987594e-01    1.0120506250e+05
    1.1996998638e-01    1.0120505469e+05
    1.1997977644e-01    1.0120505469e+05
    1.1998988688e-01    1.0120505469e+05
    1.1999967694e-01    1.0120505469e+05
endcurve
