Curveplot
LS-DYNA keyword deck by LS-PrePost                          
Time
Pressure
Defined Connection
Pressure @ 5 #pts=12001
* Minval=     6.6781078125e+04 at time=         0.0068398258
* Maxval=     6.7145093750e+05 at time=         0.0019097509
    0.0000000000e+00    1.0120000000e+05
    9.9485323517e-06    1.0120000000e+05
    1.9945611712e-05    1.0120000000e+05
    2.9979442843e-05    1.0120000000e+05
    3.9977581764e-05    1.0120000000e+05
    4.9983951612e-05    1.0120000000e+05
    5.9990270529e-05    1.0120000000e+05
    6.9934983912e-05    1.0120000000e+05
    7.9969446233e-05    1.0120000000e+05
    8.9974186267e-05    1.0120000000e+05
    9.9934797618e-05    1.0120000000e+05
    1.0997685604e-04    1.0120000000e+05
    1.1994514352e-04    1.0120000000e+05
    1.2997510203e-04    1.0120000000e+05
    1.3998290524e-04    1.0120000000e+05
    1.4995656966e-04    1.0120000000e+05
    1.5996450384e-04    1.0120000000e+05
    1.6999947547e-04    1.0120000000e+05
    1.7997041869e-04    1.0120000000e+05
    1.8994954007e-04    1.0120000000e+05
    1.9992935995e-04    1.0120000000e+05
    2.0998885157e-04    1.0120000000e+05
    2.1994608687e-04    1.0120000000e+05
    2.2996898042e-04    1.0120000000e+05
    2.3996196978e-04    1.0120000000e+05
    2.4991590180e-04    1.0120000000e+05
    2.5991559960e-04    1.0120000000e+05
    2.6995153166e-04    1.0120000000e+05
    2.7991249226e-04    1.0120000000e+05
    2.8998305788e-04    1.0120000000e+05
    2.9996826197e-04    1.0120000000e+05
    3.0996266287e-04    1.0120000000e+05
    3.1996471807e-04    1.0120000000e+05
    3.2997241942e-04    1.0120000000e+05
    3.3998367144e-04    1.0120000000e+05
    3.4999704803e-04    1.0120000000e+05
    3.5990501055e-04    1.0120000000e+05
    3.6991396337e-04    1.0120000000e+05
    3.7992166472e-04    1.0120000000e+05
    3.8992456393e-04    1.0120000000e+05
    3.9992079837e-04    1.0120000000e+05
    4.0990687557e-04    1.0120000000e+05
    4.1999437963e-04    1.0120000000e+05
    4.2996162665e-04    1.0120000000e+05
    4.3991528219e-04    1.0120000000e+05
    4.4996821089e-04    1.0120000000e+05
    4.5988807688e-04    1.0120000000e+05
    4.6990765259e-04    1.0120000000e+05
    4.7990804887e-04    1.0120000000e+05
    4.8988760682e-04    1.0120000000e+05
    4.9996492453e-04    1.0120000000e+05
    5.0989812007e-04    1.0120000000e+05
    5.1992532099e-04    1.0120000000e+05
    5.2992830751e-04    1.0120000000e+05
    5.3990300512e-04    1.0120000000e+05
    5.4997380357e-04    1.0120000000e+05
    5.5988691747e-04    1.0120000000e+05
    5.6989450241e-04    1.0120000000e+05
    5.7999562705e-04    1.0120000000e+05
    5.8993406128e-04    1.0120000000e+05
    5.9996667551e-04    1.0120000000e+05
    6.0996110551e-04    1.0120000000e+05
    6.1991513940e-04    1.0120000000e+05
    6.2996288761e-04    1.0120000000e+05
    6.3996255631e-04    1.0120000000e+05
    6.4992287662e-04    1.0120000000e+05
    6.5997621277e-04    1.0120000000e+05
    6.6998257535e-04    1.0120000000e+05
    6.7993928678e-04    1.0120000000e+05
    6.8998814095e-04    1.0120000000e+05
    6.9998507388e-04    1.0120000000e+05
    7.0992740802e-04    1.0120000000e+05
    7.1995734470e-04    1.0120000000e+05
    7.2993349750e-04    1.0120000000e+05
    7.3984981282e-04    1.0120000000e+05
    7.4985576794e-04    1.0120000000e+05
    7.5995275984e-04    1.0120000000e+05
    7.6998694567e-04    1.0120000000e+05
    7.7995553147e-04    1.0120000000e+05
    7.8985578148e-04    1.0120000000e+05
    7.9984392505e-04    1.0120000000e+05
    8.0992118455e-04    1.0120000000e+05
    8.1992236665e-04    1.0120000000e+05
    8.2985300105e-04    1.0120000000e+05
    8.3987071412e-04    1.0120000000e+05
    8.4997655358e-04    1.0120000000e+05
    8.5983617464e-04    1.0120000000e+05
    8.6994987214e-04    1.0120000000e+05
    8.7998178788e-04    1.0120000000e+05
    8.8992866222e-04    1.0120000000e+05
    8.9996086899e-04    1.0120000000e+05
    9.0990436729e-04    1.0120000000e+05
    9.1993244132e-04    1.0120000000e+05
    9.2986808158e-04    1.0120000000e+05
    9.3988742447e-04    1.0120000000e+05
    9.4998563873e-04    1.0120000000e+05
    9.5999205951e-04    1.0120000000e+05
    9.6989894519e-04    1.0120000000e+05
    9.7988778725e-04    1.0120000000e+05
    9.8995969165e-04    1.0120000000e+05
    9.9992682226e-04    1.0120000000e+05
    1.0099763749e-03    1.0120000000e+05
    1.0199173121e-03    1.0120000000e+05
    1.0299396235e-03    1.0120000000e+05
    1.0398492450e-03    1.0120000000e+05
    1.0498394258e-03    1.0120000000e+05
    1.0599109810e-03    1.0120000000e+05
    1.0698655387e-03    1.0120000000e+05
    1.0799004231e-03    1.0120000000e+05
    1.0898138862e-03    1.0120000000e+05
    1.0998069774e-03    1.0120000000e+05
    1.1098807445e-03    1.0120000000e+05
    1.1198283173e-03    1.0120000000e+05
    1.1298556346e-03    1.0120000000e+05
    1.1399633950e-03    1.0120000000e+05
    1.1499401880e-03    1.0120000000e+05
    1.1599966092e-03    1.0120000000e+05
    1.1699177558e-03    1.0120000000e+05
    1.1799170170e-03    1.0120000000e+05
    1.1899961391e-03    1.0120000000e+05
    1.1999345152e-03    1.0120000000e+05
    1.2099515880e-03    1.0120000000e+05
    1.2198233744e-03    1.0120000000e+05
    1.2299991213e-03    1.0120000000e+05
    1.2397994287e-03    1.0120000000e+05
    1.2499071890e-03    1.0120000000e+05
    1.2598626781e-03    1.0120000000e+05
    1.2698963983e-03    1.0120000000e+05
    1.2797685340e-03    1.0120000000e+05
    1.2899526628e-03    1.0120000000e+05
    1.2999788160e-03    1.0120000000e+05
    1.3098429190e-03    1.0120000000e+05
    1.3197851367e-03    1.0120000000e+05
    1.3298104750e-03    1.0120000000e+05
    1.3399177697e-03    1.0120000000e+05
    1.3498580083e-03    1.0120000000e+05
    1.3598751975e-03    1.0120000000e+05
    1.3699728297e-03    1.0120000000e+05
    1.3798949076e-03    1.0120000000e+05
    1.3898949837e-03    1.0120000000e+05
    1.3999745715e-03    1.0120000000e+05
    1.4098731335e-03    1.0120000000e+05
    1.4198492281e-03    1.0120000000e+05
    1.4299042523e-03    1.0120000000e+05
    1.4397720806e-03    1.0120000000e+05
    1.4499868266e-03    1.0120000000e+05
    1.4597401023e-03    1.0120000000e+05
    1.4698439045e-03    1.0120000000e+05
    1.4797518961e-03    1.0120000000e+05
    1.4897387009e-03    1.0120000000e+05
    1.4998049010e-03    1.0120000000e+05
    1.5099520097e-03    1.0120000000e+05
    1.5198962064e-03    1.0120000000e+05
    1.5299195657e-03    1.0120000000e+05
    1.5397338429e-03    1.0120000000e+05
    1.5499173896e-03    1.0120000000e+05
    1.5598897589e-03    1.0120000000e+05
    1.5699423384e-03    1.0120000000e+05
    1.5797774540e-03    1.0120000000e+05
    1.5899919672e-03    1.0120000000e+05
    1.5999871539e-03    1.0120000000e+05
    1.6097566113e-03    1.0120000000e+05
    1.6199125675e-03    1.0120000000e+05
    1.6298411647e-03    1.0120000000e+05
    1.6398502048e-03    1.0120000000e+05
    1.6499409685e-03    1.0120000000e+05
    1.6597959911e-03    1.0120000000e+05
    1.6697307583e-03    1.0120000000e+05
    1.6797431745e-03    1.0120000000e+05
    1.6898382455e-03    1.0120000000e+05
    1.6996915219e-03    1.0120000000e+05
    1.7099578399e-03    1.0120000000e+05
    1.7199764261e-03    1.0120000000e+05
    1.7297405284e-03    1.0120000000e+05
    1.7399252392e-03    1.0120000000e+05
    1.7498532543e-03    1.0120000000e+05
    1.7598640407e-03    1.0120000000e+05
    1.7699593445e-03    1.0120000000e+05
    1.7797882902e-03    1.0120000000e+05
    1.7896991922e-03    1.0120000000e+05
    1.7996936804e-03    1.0120000000e+05
    1.8097733846e-03    1.0120000000e+05
    1.8199401675e-03    1.0120000000e+05
    1.8298281357e-03    1.0120000000e+05
    1.8398003886e-03    1.0120000000e+05
    1.8498535501e-03    1.0120000000e+05
    1.8599996110e-03    1.0120000000e+05
    1.8698550994e-03    1.0120000000e+05
    1.8797953380e-03    1.0120000000e+05
    1.8898225389e-03    1.0120000000e+05
    1.8999384483e-03    1.0120000000e+05
    1.9097508630e-03    6.7145093750e+05
    1.9196488429e-03    6.5624806250e+05
    1.9296344835e-03    6.4203475000e+05
    1.9397096476e-03    6.2816693750e+05
    1.9498761976e-03    6.1461675000e+05
    1.9597241189e-03    6.0189681250e+05
    1.9696603995e-03    5.8945637500e+05
    1.9796825945e-03    5.7729387500e+05
    1.9898014143e-03    5.6539318750e+05
    1.9995870534e-03    5.5423450000e+05
    2.0098928362e-03    5.4284100000e+05
    2.0198517013e-03    5.3216600000e+05
    2.0298734307e-03    5.2174759375e+05
    2.0399475470e-03    5.1158540625e+05
    2.0496179350e-03    5.0211787500e+05
    2.0597658586e-03    4.9247415625e+05
    2.0699223969e-03    4.8309090625e+05
    2.0796637982e-03    4.7436121875e+05
    2.0898901857e-03    4.6547887500e+05
    2.0996585954e-03    4.5721478125e+05
    2.1098782308e-03    4.4883015625e+05
    2.1196580492e-03    4.4102365625e+05
    2.1298893262e-03    4.3310384375e+05
    2.1396360826e-03    4.2574112500e+05
    2.1498412825e-03    4.1826300000e+05
    2.1596204024e-03    4.1130028125e+05
    2.1698244382e-03    4.0422440625e+05
    2.1795756184e-03    3.9765390625e+05
    2.1897717379e-03    3.9095662500e+05
    2.1999597084e-03    3.8445471875e+05
    2.2096924949e-03    3.7840915625e+05
    2.2198879160e-03    3.7224525000e+05
    2.2296304815e-03    3.6650409375e+05
    2.2399055306e-03    3.6062559375e+05
    2.2496536840e-03    3.5517015625e+05
    2.2598369978e-03    3.4963912500e+05
    2.2699865513e-03    3.4426409375e+05
    2.2797670681e-03    3.3920481250e+05
    2.2899804171e-03    3.3406584375e+05
    2.2998028435e-03    3.2925693750e+05
    2.3096117657e-03    3.2455515625e+05
    2.3199098650e-03    3.1975162500e+05
    2.3297860753e-03    3.1525640625e+05
    2.3396664765e-03    3.1087053125e+05
    2.3495727219e-03    3.0658000000e+05
    2.3599320557e-03    3.0219728125e+05
    2.3698583245e-03    2.9810087500e+05
    2.3797976319e-03    2.9409815625e+05
    2.3897401989e-03    2.9019090625e+05
    2.3996820673e-03    2.8637534375e+05
    2.4096036796e-03    2.8265284375e+05
    2.4199469481e-03    2.7886090625e+05
    2.4298336357e-03    2.7532321875e+05
    2.4396786466e-03    2.7187787500e+05
    2.4499427527e-03    2.6837112500e+05
    2.4597146548e-03    2.6510812500e+05
    2.4698802736e-03    2.6178879688e+05
    2.4799762759e-03    2.5856704688e+05
    2.4899949785e-03    2.5544110938e+05
    2.4999384768e-03    2.5240742188e+05
    2.5098072365e-03    2.4946295312e+05
    2.5195998605e-03    2.4660260938e+05
    2.5297428947e-03    2.4370301562e+05
    2.5398090947e-03    2.4088917188e+05
    2.5497993920e-03    2.3815782812e+05
    2.5597144850e-03    2.3550204688e+05
    2.5699632242e-03    2.3281329688e+05
    2.5797276758e-03    2.3030589062e+05
    2.5898222812e-03    2.2776792188e+05
    2.5998398196e-03    2.2530137500e+05
    2.6097809896e-03    2.2290475000e+05
    2.6196462568e-03    2.2057595312e+05
    2.6298279408e-03    2.1822206250e+05
    2.6399299968e-03    2.1593382812e+05
    2.6499538217e-03    2.1370679688e+05
    2.6599003468e-03    2.1153695312e+05
    2.6697702706e-03    2.0942204688e+05
    2.6799398474e-03    2.0728276562e+05
    2.6896558702e-03    2.0527867188e+05
    2.6996675879e-03    2.0325718750e+05
    2.7099666186e-03    2.0122443750e+05
    2.7198181488e-03    1.9932267188e+05
    2.7299530338e-03    1.9740582812e+05
    2.7396478690e-03    1.9560481250e+05
    2.7499764692e-03    1.9371742188e+05
    2.7598666493e-03    1.9193937500e+05
    2.7696762700e-03    1.9020456250e+05
    2.7797524817e-03    1.8845443750e+05
    2.7897446416e-03    1.8675229688e+05
    2.7999929152e-03    1.8504129688e+05
    2.8098153416e-03    1.8343326562e+05
    2.8198899236e-03    1.8181479688e+05
    2.8298764955e-03    1.8023882812e+05
    2.8397759888e-03    1.7870367188e+05
    2.8499143664e-03    1.7715907812e+05
    2.8599614743e-03    1.7565635938e+05
    2.8699168470e-03    1.7419412500e+05
    2.8797821142e-03    1.7276962500e+05
    2.8898706660e-03    1.7133603125e+05
    2.8998635244e-03    1.6993745312e+05
    2.9097609222e-03    1.6857239062e+05
    2.9198681004e-03    1.6719915625e+05
    2.9298744630e-03    1.6586256250e+05
    2.9397804756e-03    1.6456460938e+05
    2.9498822987e-03    1.6326882812e+05
    2.9598779511e-03    1.6201457812e+05
    2.9697674327e-03    1.6079793750e+05
    2.9798373580e-03    1.5957854688e+05
    2.9897950590e-03    1.5838671875e+05
    2.9999201652e-03    1.5718684375e+05
    3.0099267606e-03    1.5601432812e+05
    3.0198143795e-03    1.5487350000e+05
    3.0298524071e-03    1.5373865625e+05
    3.0397642404e-03    1.5264304688e+05
    3.0498120468e-03    1.5155618750e+05
    3.0599841848e-03    1.5047412500e+05
    3.0697588809e-03    1.4944565625e+05
    3.0799007509e-03    1.4838739062e+05
    3.0898908153e-03    1.4735615625e+05
    3.0999714509e-03    1.4633292188e+05
    3.1098893378e-03    1.4534839062e+05
    3.1198782381e-03    1.4437910938e+05
    3.1299234834e-03    1.4342120312e+05
    3.1397826970e-03    1.4249035938e+05
    3.1498975586e-03    1.4154190625e+05
    3.1598007772e-03    1.4062296875e+05
    3.1699130777e-03    1.3970143750e+05
    3.1799909193e-03    1.3880446875e+05
    3.1898093875e-03    1.3794882812e+05
    3.1999475323e-03    1.3707681250e+05
    3.2099606469e-03    1.3622073438e+05
    3.2199975103e-03    1.3536821875e+05
    3.2299957238e-03    1.3453078125e+05
    3.2398826443e-03    1.3372176562e+05
    3.2498822547e-03    1.3292445312e+05
    3.2599582337e-03    1.3213468750e+05
    3.2699499279e-03    1.3135481250e+05
    3.2799944747e-03    1.3057318750e+05
    3.2899063081e-03    1.2981328125e+05
    3.2999233808e-03    1.2905475781e+05
    3.3098831773e-03    1.2830696094e+05
    3.3199142199e-03    1.2757577344e+05
    3.3298868220e-03    1.2688847656e+05
    3.3399225213e-03    1.2620715625e+05
    3.3499663696e-03    1.2549303906e+05
    3.3598393202e-03    1.2477105469e+05
    3.3699464984e-03    1.2407103906e+05
    3.3799984958e-03    1.2344127344e+05
    3.3899340779e-03    1.2282272656e+05
    3.3998445142e-03    1.2214191406e+05
    3.4099190962e-03    1.2142030469e+05
    3.4198737703e-03    1.2074821094e+05
    3.4299511462e-03    1.2014353906e+05
    3.4399526194e-03    1.1960471094e+05
    3.4498586319e-03    1.1906136719e+05
    3.4598479979e-03    1.1845258594e+05
    3.4699465614e-03    1.1780135156e+05
    3.4799140412e-03    1.1716632031e+05
    3.4899776801e-03    1.1655147656e+05
    3.4998855554e-03    1.1597846094e+05
    3.5098863300e-03    1.1543089844e+05
    3.5199327394e-03    1.1489978125e+05
    3.5298557486e-03    1.1437230469e+05
    3.5398430191e-03    1.1383208594e+05
    3.5498777870e-03    1.1329021094e+05
    3.5599730909e-03    1.1275797656e+05
    3.5698993597e-03    1.1224471094e+05
    3.5799113102e-03    1.1173040625e+05
    3.5899395589e-03    1.1121564844e+05
    3.5998183303e-03    1.1071090625e+05
    3.6099611316e-03    1.1019882031e+05
    3.6199307069e-03    1.0970080469e+05
    3.6299412604e-03    1.0920835156e+05
    3.6397809163e-03    1.0873294531e+05
    3.6498939153e-03    1.0825641406e+05
    3.6598062143e-03    1.0779821094e+05
    3.6699986085e-03    1.0733496094e+05
    3.6799884401e-03    1.0688391406e+05
    3.6898076069e-03    1.0644056250e+05
    3.6998952273e-03    1.0598791406e+05
    3.7097735330e-03    1.0554871094e+05
    3.7199405488e-03    1.0510403125e+05
    3.7298977841e-03    1.0467758594e+05
    3.7398808636e-03    1.0425622656e+05
    3.7499342579e-03    1.0383780469e+05
    3.7599643692e-03    1.0342784375e+05
    3.7698603701e-03    1.0302880469e+05
    3.7799740676e-03    1.0262235156e+05
    3.7898919545e-03    1.0222082031e+05
    3.7998750340e-03    1.0181141406e+05
    3.8098320365e-03    1.0140258594e+05
    3.8198735565e-03    1.0099946094e+05
    3.8299148437e-03    1.0061603906e+05
    3.8399621844e-03    1.0025540625e+05
    3.8498691283e-03    9.9912875000e+04
    3.8599602412e-03    9.9557914062e+04
    3.8698834833e-03    9.9189320312e+04
    3.8798451424e-03    9.8806585938e+04
    3.8897763006e-03    9.8432148438e+04
    3.8997959346e-03    9.8072929688e+04
    3.9098095149e-03    9.7730343750e+04
    3.9198365994e-03    9.7395476562e+04
    3.9299228229e-03    9.7060945312e+04
    3.9397682995e-03    9.6736117188e+04
    3.9498871192e-03    9.6401726562e+04
    3.9597898722e-03    9.6068179688e+04
    3.9699557237e-03    9.5719398438e+04
    3.9799059741e-03    9.5383343750e+04
    3.9898687974e-03    9.5067523438e+04
    3.9998539723e-03    9.4774492188e+04
    4.0098638274e-03    9.4484179688e+04
    4.0198811330e-03    9.4172898438e+04
    4.0299161337e-03    9.3842898438e+04
    4.0399711579e-03    9.3518070312e+04
    4.0497900918e-03    9.3225054688e+04
    4.0598632768e-03    9.2949226562e+04
    4.0699518286e-03    9.2677164062e+04
    4.0798024274e-03    9.2392507812e+04
    4.0899058804e-03    9.2081101562e+04
    4.0997685865e-03    9.1779601562e+04
    4.1098822840e-03    9.1495085938e+04
    4.1199987754e-03    9.1238414062e+04
    4.1298693977e-03    9.0991570312e+04
    4.1399872862e-03    9.0713101562e+04
    4.1498583741e-03    9.0420914062e+04
    4.1599757969e-03    9.0134257812e+04
    4.1698464192e-03    8.9887632812e+04
    4.1799638420e-03    8.9653593750e+04
    4.1898330674e-03    8.9408375000e+04
    4.1999490932e-03    8.9126898438e+04
    4.2098173872e-03    8.8853585938e+04
    4.2199306190e-03    8.8605742188e+04
    4.2297965847e-03    8.8389906250e+04
    4.2399065569e-03    8.8159835938e+04
    4.2497701943e-03    8.7905460938e+04
    4.2598815635e-03    8.7636789062e+04
    4.2699906044e-03    8.7395898438e+04
    4.2798602954e-03    8.7188296875e+04
    4.2899828404e-03    8.6971070312e+04
    4.2998571880e-03    8.6731039062e+04
    4.3099881150e-03    8.6476664062e+04
    4.3198834173e-03    8.6253664062e+04
    4.3297833763e-03    8.6055875000e+04
    4.3399338610e-03    8.5845976562e+04
    4.3498477899e-03    8.5616070312e+04
    4.3597719632e-03    8.5381195312e+04
    4.3699475937e-03    8.5166789062e+04
    4.3798820116e-03    8.4976523438e+04
    4.3898317963e-03    8.4775695312e+04
    4.3997853063e-03    8.4554757812e+04
    4.4099939987e-03    8.4331203125e+04
    4.4199679978e-03    8.4136429688e+04
    4.4299531728e-03    8.3951289062e+04
    4.4399392791e-03    8.3752828125e+04
    4.4499323703e-03    8.3542250000e+04
    4.4599412940e-03    8.3340765625e+04
    4.4699553400e-03    8.3157820312e+04
    4.4799689204e-03    8.2976359375e+04
    4.4899987988e-03    8.2781390625e+04
    4.4997911900e-03    8.2587062500e+04
    4.5098336414e-03    8.2401101562e+04
    4.5198821463e-03    8.2226578125e+04
    4.5299497433e-03    8.2046179688e+04
    4.5397705398e-03    8.1861632812e+04
    4.5498372056e-03    8.1678710938e+04
    4.5599187724e-03    8.1505953125e+04
    4.5697651803e-03    8.1339453125e+04
    4.5798625797e-03    8.1162296875e+04
    4.5899599791e-03    8.0983546875e+04
    4.5998273417e-03    8.0816445312e+04
    4.6099531464e-03    8.0651585938e+04
    4.6198200434e-03    8.0487593750e+04
    4.6299481764e-03    8.0315601562e+04
    4.6398504637e-03    8.0152679688e+04
    4.6499939635e-03    7.9991523438e+04
    4.6598920599e-03    7.9836203125e+04
    4.6698031947e-03    7.9678617188e+04
    4.6799872071e-03    7.9516781250e+04
    4.6898932196e-03    7.9364632812e+04
    4.6998150647e-03    7.9214156250e+04
    4.7097606584e-03    7.9062429688e+04
    4.7199684195e-03    7.8908031250e+04
    4.7298986465e-03    7.8759898438e+04
    4.7398488969e-03    7.8614773438e+04
    4.7498266213e-03    7.8469742188e+04
    4.7597973607e-03    7.8324390625e+04
    4.7699995339e-03    7.8178429688e+04
    4.7799767926e-03    7.8037414062e+04
    4.7899703495e-03    7.7897953125e+04
    4.7999653034e-03    7.7758703125e+04
    4.8099462874e-03    7.7620679688e+04
    4.8199482262e-03    7.7484867188e+04
    4.8299548216e-03    7.7349789062e+04
    4.8399758525e-03    7.7216148438e+04
    4.8499954864e-03    7.7082929688e+04
    4.8597622663e-03    7.6954867188e+04
    4.8697874881e-03    7.6824781250e+04
    4.8798280768e-03    7.6695601562e+04
    4.8898817040e-03    7.6567882812e+04
    4.8999306746e-03    7.6441335938e+04
    4.9099768512e-03    7.6316851562e+04
    4.9197790213e-03    7.6196226562e+04
    4.9298596568e-03    7.6073625000e+04
    4.9399342388e-03    7.5951734375e+04
    4.9499939196e-03    7.5831210938e+04
    4.9598128535e-03    7.5714429688e+04
    4.9699097872e-03    7.5595531250e+04
    4.9797529355e-03    7.5480789062e+04
    4.9898372963e-03    7.5364187500e+04
    4.9999253824e-03    7.5248593750e+04
    5.0097727217e-03    7.5136789062e+04
    5.0198966637e-03    7.5023695312e+04
    5.0297556445e-03    7.4915476562e+04
    5.0398646854e-03    7.4806289062e+04
    5.0499746576e-03    7.4697632812e+04
    5.0598513335e-03    7.4591421875e+04
    5.0697401166e-03    7.4484953125e+04
    5.0798892044e-03    7.4376570312e+04
    5.0897751935e-03    7.4272492188e+04
    5.0999177620e-03    7.4167718750e+04
    5.1098070107e-03    7.4067343750e+04
    5.1199570298e-03    7.3965851562e+04
    5.1298537292e-03    7.3867523438e+04
    5.1397546194e-03    7.3769148438e+04
    5.1499130204e-03    7.3668398438e+04
    5.1598083228e-03    7.3571460938e+04
    5.1699629985e-03    7.3473906250e+04
    5.1798550412e-03    7.3380414062e+04
    5.1897475496e-03    7.3287484375e+04
    5.1999073476e-03    7.3192335938e+04
    5.2098152228e-03    7.3100367188e+04
    5.2199824713e-03    7.3007343750e+04
    5.2298870869e-03    7.2917914062e+04
    5.2397903055e-03    7.2829320312e+04
    5.2499533631e-03    7.2739125000e+04
    5.2598551847e-03    7.2652148438e+04
    5.2697579376e-03    7.2566140625e+04
    5.2799209952e-03    7.2478742188e+04
    5.2898242138e-03    7.2394335938e+04
    5.2999872714e-03    7.2308546875e+04
    5.3098895587e-03    7.2225937500e+04
    5.3197918460e-03    7.2144304688e+04
    5.3299544379e-03    7.2061367188e+04
    5.3398562595e-03    7.1981250000e+04
    5.3497580811e-03    7.1901804688e+04
    5.3599206731e-03    7.1821156250e+04
    5.3698220290e-03    7.1743601562e+04
    5.3799836896e-03    7.1664976562e+04
    5.3898836486e-03    7.1589070312e+04
    5.3997836076e-03    7.1513765625e+04
    5.4099434055e-03    7.1437234375e+04
    5.4198424332e-03    7.1363617188e+04
    5.4297419265e-03    7.1290984375e+04
    5.4399017245e-03    7.1217257812e+04
    5.4498016834e-03    7.1146000000e+04
    5.4599614814e-03    7.1073500000e+04
    5.4698665626e-03    7.1003578125e+04
    5.4797730409e-03    7.0934515625e+04
    5.4899435490e-03    7.0864453125e+04
    5.4998560809e-03    7.0796929688e+04
    5.5097811855e-03    7.0730007812e+04
    5.5199749768e-03    7.0661921875e+04
    5.5299121886e-03    7.0596265625e+04
    5.5398498662e-03    7.0531421875e+04
    5.5497861467e-03    7.0467351562e+04
    5.5599827319e-03    7.0402203125e+04
    5.5699162185e-03    7.0339195312e+04
    5.5798492394e-03    7.0276757812e+04
    5.5897836573e-03    7.0215109375e+04
    5.5999825709e-03    7.0153007812e+04
    5.6099244393e-03    7.0093875000e+04
    5.6198653765e-03    7.0035937500e+04
    5.6298053823e-03    6.9978406250e+04
    5.6397444569e-03    6.9920335938e+04
    5.6499443017e-03    6.9860007812e+04
    5.6598829105e-03    6.9801507812e+04
    5.6698233820e-03    6.9744531250e+04
    5.6797666475e-03    6.9689515625e+04
    5.6899706833e-03    6.9634484375e+04
    5.6999120861e-03    6.9581296875e+04
    5.7098525576e-03    6.9528078125e+04
    5.7197920978e-03    6.9474890625e+04
    5.7299965993e-03    6.9420718750e+04
    5.7399426587e-03    6.9368851562e+04
    5.7498877868e-03    6.9318156250e+04
    5.7598315179e-03    6.9268289062e+04
    5.7697743177e-03    6.9218718750e+04
    5.7799806818e-03    6.9168031250e+04
    5.7899295352e-03    6.9119195312e+04
    5.7998774573e-03    6.9071187500e+04
    5.8098244481e-03    6.9023890625e+04
    5.8197705075e-03    6.8977164062e+04
    5.8299805969e-03    6.8929820312e+04
    5.8399313129e-03    6.8884320312e+04
    5.8498806320e-03    6.8839398438e+04
    5.8598294854e-03    6.8794992188e+04
    5.8697778732e-03    6.8751109375e+04
    5.8799921535e-03    6.8706656250e+04
    5.8899438009e-03    6.8663945312e+04
    5.8998945169e-03    6.8621781250e+04
    5.9098447673e-03    6.8580093750e+04
    5.9197978117e-03    6.8538867188e+04
    5.9297513217e-03    6.8498117188e+04
    5.9399656020e-03    6.8456851562e+04
    5.9499177150e-03    6.8417273438e+04
    5.9598716907e-03    6.8378414062e+04
    5.9698256664e-03    6.8340296875e+04
    5.9797791764e-03    6.8302875000e+04
    5.9899943881e-03    6.8265078125e+04
    5.9999483638e-03    6.8228656250e+04
    6.0099023394e-03    6.8192437500e+04
    6.0198563151e-03    6.8156351562e+04
    6.0298093595e-03    6.8120617188e+04
    6.0397638008e-03    6.8085593750e+04
    6.0499794781e-03    6.8050546875e+04
    6.0599329881e-03    6.8017125000e+04
    6.0698864982e-03    6.7984148438e+04
    6.0798395425e-03    6.7951507812e+04
    6.0897925869e-03    6.7919226562e+04
    6.0997451656e-03    6.7887398438e+04
    6.1099599116e-03    6.7855312500e+04
    6.1199120246e-03    6.7824695312e+04
    6.1298636720e-03    6.7794664062e+04
    6.1398153193e-03    6.7765078125e+04
    6.1497674324e-03    6.7735812500e+04
    6.1599826440e-03    6.7706164062e+04
    6.1699352227e-03    6.7677789062e+04
    6.1798868701e-03    6.7649968750e+04
    6.1898380518e-03    6.7622679688e+04
    6.1997887678e-03    6.7595875000e+04
    6.2097394839e-03    6.7569515625e+04
    6.2199514359e-03    6.7542929688e+04
    6.2299030833e-03    6.7517531250e+04
    6.2398551963e-03    6.7492593750e+04
    6.2498068437e-03    6.7468054688e+04
    6.2597584911e-03    6.7443898438e+04
    6.2699713744e-03    6.7419562500e+04
    6.2799225561e-03    6.7396335938e+04
    6.2898732722e-03    6.7373562500e+04
    6.2998235226e-03    6.7351218750e+04
    6.3097742386e-03    6.7329320312e+04
    6.3199857250e-03    6.7307375000e+04
    6.3299355097e-03    6.7286500000e+04
    6.3398843631e-03    6.7265976562e+04
    6.3498332165e-03    6.7245718750e+04
    6.3597816043e-03    6.7225804688e+04
    6.3699916936e-03    6.7205882812e+04
    6.3799396157e-03    6.7187031250e+04
    6.3898880035e-03    6.7168726562e+04
    6.3998373225e-03    6.7150890625e+04
    6.4097866416e-03    6.7133398438e+04
    6.4199976623e-03    6.7115601562e+04
    6.4299455844e-03    6.7098414062e+04
    6.4398930408e-03    6.7081593750e+04
    6.4498404972e-03    6.7065398438e+04
    6.4597874880e-03    6.7049812500e+04
    6.4699966460e-03    6.7034179688e+04
    6.4799445681e-03    6.7019140625e+04
    6.4898924902e-03    6.7004375000e+04
    6.4998399466e-03    6.6990031250e+04
    6.5097869374e-03    6.6976070312e+04
    6.5199951641e-03    6.6962000000e+04
    6.5299416892e-03    6.6948468750e+04
    6.5398882143e-03    6.6935132812e+04
    6.5498342738e-03    6.6922070312e+04
    6.5597798675e-03    6.6909507812e+04
    6.5699871629e-03    6.6897750000e+04
    6.5799322911e-03    6.6888406250e+04
    6.5898769535e-03    6.6882179688e+04
    6.5998220816e-03    6.6879359375e+04
    6.6097667441e-03    6.6878718750e+04
    6.6199731082e-03    6.6877375000e+04
    6.6299168393e-03    6.6872328125e+04
    6.6398619674e-03    6.6862515625e+04
    6.6498080269e-03    6.6849867188e+04
    6.6597545519e-03    6.6838140625e+04
    6.6699637100e-03    6.6830023438e+04
    6.6799148917e-03    6.6825765625e+04
    6.6898707300e-03    6.6822367188e+04
    6.6998288967e-03    6.6817484375e+04
    6.7097917199e-03    6.6811343750e+04
    6.7197633907e-03    6.6805804688e+04
    6.7297439091e-03    6.6801835938e+04
    6.7399912514e-03    6.6798656250e+04
    6.7499866709e-03    6.6795445312e+04
    6.7599914037e-03    6.6792156250e+04
    6.7697432823e-03    6.6789445312e+04
    6.7797643133e-03    6.6787320312e+04
    6.7897937261e-03    6.6785578125e+04
    6.7998371087e-03    6.6784023438e+04
    6.8098884076e-03    6.6782742188e+04
    6.8199466914e-03    6.6781812500e+04
    6.8297488615e-03    6.6781250000e+04
    6.8398257717e-03    6.6781078125e+04
    6.8499138579e-03    6.6781351562e+04
    6.8597421050e-03    6.6782031250e+04
    6.8698446266e-03    6.6783085938e+04
    6.8799550645e-03    6.6784445312e+04
    6.8898079917e-03    6.6786101562e+04
    6.8999375217e-03    6.6788218750e+04
    6.9098039530e-03    6.6790718750e+04
    6.9199469872e-03    6.6793718750e+04
    6.9298301823e-03    6.6797023438e+04
    6.9399885833e-03    6.6800742188e+04
    6.9498913363e-03    6.6804617188e+04
    6.9597978145e-03    6.6808804688e+04
    6.9699794985e-03    6.6813531250e+04
    6.9798994809e-03    6.6818562500e+04
    6.9898259826e-03    6.6823914062e+04
    6.9997650571e-03    6.6829531250e+04
    7.0099742152e-03    6.6835632812e+04
    7.0199216716e-03    6.6841960938e+04
    7.0298779756e-03    6.6848687500e+04
    7.0398407988e-03    6.6855781250e+04
    7.0498115383e-03    6.6863265625e+04
    7.0597850718e-03    6.6871109375e+04
    7.0697627962e-03    6.6879234375e+04
    7.0797516964e-03    6.6887656250e+04
    7.0897461846e-03    6.6896476562e+04
    7.0997485891e-03    6.6905765625e+04
    7.1097561158e-03    6.6915414062e+04
    7.1197664365e-03    6.6925289062e+04
    7.1297874674e-03    6.6935445312e+04
    7.1398136206e-03    6.6946007812e+04
    7.1498444304e-03    6.6957039062e+04
    7.1598780341e-03    6.6968484375e+04
    7.1699162945e-03    6.6980234375e+04
    7.1799634025e-03    6.6992281250e+04
    7.1897483431e-03    6.7004312500e+04
    7.1998061612e-03    6.7017039062e+04
    7.2098714299e-03    6.7030164062e+04
    7.2199385613e-03    6.7043593750e+04
    7.2297411971e-03    6.7056914062e+04
    7.2398236953e-03    6.7070890625e+04
    7.2499038652e-03    6.7085250000e+04
    7.2599933483e-03    6.7100078125e+04
    7.2698155418e-03    6.7114835938e+04
    7.2799138725e-03    6.7130171875e+04
    7.2897514328e-03    6.7145242188e+04
    7.2998590767e-03    6.7161148438e+04
    7.3099709116e-03    6.7177820312e+04
    7.3198224418e-03    6.7194796875e+04
    7.3299449869e-03    6.7212625000e+04
    7.3398067616e-03    6.7230062500e+04
    7.3499395512e-03    6.7248125000e+04
    7.3598013259e-03    6.7266148438e+04
    7.3699499480e-03    6.7285242188e+04
    7.3798252270e-03    6.7304046875e+04
    7.3899785057e-03    6.7323320312e+04
    7.3998644948e-03    6.7342148438e+04
    7.4097430333e-03    6.7361437500e+04
    7.4199172668e-03    6.7382062500e+04
    7.4298200198e-03    6.7402718750e+04
    7.4397255667e-03    6.7423585938e+04
    7.4499133043e-03    6.7445125000e+04
    7.4598146603e-03    6.7466289062e+04
    7.4699982069e-03    6.7488531250e+04
    7.4799205177e-03    6.7510671875e+04
    7.4898405001e-03    6.7533148438e+04
    7.4997739866e-03    6.7555937500e+04
    7.5099798851e-03    6.7579703125e+04
    7.5199068524e-03    6.7603187500e+04
    7.5298482552e-03    6.7626992188e+04
    7.5397882611e-03    6.7651039062e+04
    7.5497403741e-03    6.7675492188e+04
    7.5599756092e-03    6.7701140625e+04
    7.5699328445e-03    6.7726531250e+04
    7.5798965991e-03    6.7752218750e+04
    7.5898608193e-03    6.7778125000e+04
    7.5998208486e-03    6.7804335938e+04
    7.6097943820e-03    6.7830992188e+04
    7.6197688468e-03    6.7858062500e+04
    7.6297558844e-03    6.7885515625e+04
    7.6397489756e-03    6.7913281250e+04
    7.6497388072e-03    6.7941328125e+04
    7.6597323641e-03    6.7969757812e+04
    7.6697273180e-03    6.7998609375e+04
    7.6797236688e-03    6.8027859375e+04
    7.6897335239e-03    6.8057500000e+04
    7.6997471042e-03    6.8087460938e+04
    7.7097648755e-03    6.8117742188e+04
    7.7197859064e-03    6.8148351562e+04
    7.7298027463e-03    6.8179335938e+04
    7.7398270369e-03    6.8210796875e+04
    7.7498569153e-03    6.8242742188e+04
    7.7598928474e-03    6.8275039062e+04
    7.7699371614e-03    6.8307585938e+04
    7.7799828723e-03    6.8340390625e+04
    7.7897482552e-03    6.8372695312e+04
    7.7997944318e-03    6.8406492188e+04
    7.8098457307e-03    6.8440804688e+04
    7.8199068084e-03    6.8475437500e+04
    7.8299725428e-03    6.8510203125e+04
    7.8397644684e-03    6.8544132812e+04
    7.8498376533e-03    6.8579343750e+04
    7.8599099070e-03    6.8615085938e+04
    7.8699830920e-03    6.8651468750e+04
    7.8797833994e-03    6.8687382812e+04
    7.8898733482e-03    6.8724718750e+04
    7.8999679536e-03    6.8762390625e+04
    7.9097850248e-03    6.8799468750e+04
    7.9198852181e-03    6.8838203125e+04
    7.9299872741e-03    6.8877476562e+04
    7.9398108646e-03    6.8915953125e+04
    7.9499213025e-03    6.8955617188e+04
    7.9597579315e-03    6.8994234375e+04
    7.9698823392e-03    6.9034179688e+04
    7.9797273502e-03    6.9073531250e+04
    7.9898564145e-03    6.9114773438e+04
    7.9999854788e-03    6.9156789062e+04
    8.0098379403e-03    6.9198109375e+04
    8.0199753866e-03    6.9240812500e+04
    8.0298408866e-03    6.9282492188e+04
    8.0399923027e-03    6.9325718750e+04
    8.0498680472e-03    6.9368328125e+04
    8.0597456545e-03    6.9411562500e+04
    8.0699073151e-03    6.9456515625e+04
    8.0797877163e-03    6.9500406250e+04
    8.0899549648e-03    6.9545585938e+04
    8.0998484045e-03    6.9589671875e+04
    8.1097483635e-03    6.9634226562e+04
    8.1199342385e-03    6.9680859375e+04
    8.1298416480e-03    6.9727039062e+04
    8.1397490576e-03    6.9773828125e+04
    8.1499423832e-03    6.9822351562e+04
    8.1598581746e-03    6.9869867188e+04
    8.1697786227e-03    6.9917812500e+04
    8.1799943000e-03    6.9967703125e+04
    8.1899268553e-03    7.0016750000e+04
    8.1998622045e-03    7.0066171875e+04
    8.2098003477e-03    7.0115796875e+04
    8.2197422162e-03    7.0165609375e+04
    8.2299718633e-03    7.0217273438e+04
    8.2399258390e-03    7.0268210938e+04
    8.2498854026e-03    7.0319968750e+04
    8.2598505542e-03    7.0372453125e+04
    8.2698157057e-03    7.0425437500e+04
    8.2797827199e-03    7.0478781250e+04
    8.2897581160e-03    7.0532460938e+04
    8.2997353747e-03    7.0586468750e+04
    8.3097191527e-03    7.0640945312e+04
    8.3199962974e-03    7.0697625000e+04
    8.3299921826e-03    7.0753437500e+04
    8.3399908617e-03    7.0809906250e+04
    8.3499904722e-03    7.0866914062e+04
    8.3599956706e-03    7.0924390625e+04
    8.3697214723e-03    7.0980664062e+04
    8.3797359839e-03    7.1039046875e+04
    8.3897523582e-03    7.1097968750e+04
    8.3997780457e-03    7.1157539062e+04
    8.4098074585e-03    7.1217757812e+04
    8.4198452532e-03    7.1278664062e+04
    8.4298904985e-03    7.1340195312e+04
    8.4399459884e-03    7.1402289062e+04
    8.4497202188e-03    7.1463140625e+04
    8.4597803652e-03    7.1526343750e+04
    8.4698386490e-03    7.1590226562e+04
    8.4798969328e-03    7.1654835938e+04
    8.4899496287e-03    7.1720101562e+04
    8.4997247905e-03    7.1784093750e+04
    8.5097914562e-03    7.1850460938e+04
    8.5198655725e-03    7.1917328125e+04
    8.5299424827e-03    7.1984773438e+04
    8.5397269577e-03    7.2050953125e+04
    8.5498010740e-03    7.2119929688e+04
    8.5598817095e-03    7.2189937500e+04
    8.5699567571e-03    7.2320101562e+04
    8.5797524080e-03    9.4233054688e+04
    8.5898423567e-03    1.0990903906e+05
    8.5999313742e-03    1.1007014844e+05
    8.6097400635e-03    1.0993914844e+05
    8.6198356003e-03    1.0979572656e+05
    8.6299460381e-03    1.0965902344e+05
    8.6397817358e-03    1.0952925781e+05
    8.6499108002e-03    1.0939782031e+05
    8.6597567424e-03    1.0927169531e+05
    8.6698979139e-03    1.0914424219e+05
    8.6797475815e-03    1.0902077344e+05
    8.6898859590e-03    1.0889859375e+05
    8.6997309700e-03    1.0877753906e+05
    8.7098646909e-03    1.0865847656e+05
    8.7197124958e-03    1.0854121875e+05
    8.7298518047e-03    1.0842396094e+05
    8.7399985641e-03    1.0830660156e+05
    8.7498603389e-03    1.0819374219e+05
    8.7597211823e-03    1.0808177344e+05
    8.7698716670e-03    1.0796680469e+05
    8.7797306478e-03    1.0785512500e+05
    8.7898755446e-03    1.0774044531e+05
    8.7997326627e-03    1.0762905469e+05
    8.8098803535e-03    1.0751436719e+05
    8.8197402656e-03    1.0740272656e+05
    8.8298944756e-03    1.0728750000e+05
    8.8397590443e-03    1.0717515625e+05
    8.8499113917e-03    1.0705953125e+05
    8.8597750291e-03    1.0694710156e+05
    8.8699245825e-03    1.0683097656e+05
    8.8797854260e-03    1.0671785156e+05
    8.8899424300e-03    1.0660114844e+05
    8.8998107240e-03    1.0648771094e+05
    8.9099714532e-03    1.0637096094e+05
    8.9198388159e-03    1.0625764844e+05
    8.9299967512e-03    1.0614124219e+05
    8.9398706332e-03    1.0602821094e+05
    8.9497473091e-03    1.0591533594e+05
    8.9599136263e-03    1.0579952344e+05
    8.9697949588e-03    1.0568719531e+05
    8.9799705893e-03    1.0557189844e+05
    8.9898565784e-03    1.0546025000e+05
    8.9997407049e-03    1.0534910156e+05
    9.0099098161e-03    1.0523517969e+05
    9.0197976679e-03    1.0512459375e+05
    9.0299844742e-03    1.0501162500e+05
    9.0398797765e-03    1.0490203125e+05
    9.0497843921e-03    1.0479288281e+05
    9.0599814430e-03    1.0468165625e+05
    9.0698916465e-03    1.0457327344e+05
    9.0798009187e-03    1.0446583594e+05
    9.0897092596e-03    1.0435921875e+05
    9.0999063104e-03    1.0424957031e+05
    9.1098109260e-03    1.0414392969e+05
    9.1197146103e-03    1.0403859375e+05
    9.1299088672e-03    1.0393080469e+05
    9.1398106888e-03    1.0382650781e+05
    9.1497134417e-03    1.0372283594e+05
    9.1599067673e-03    1.0361672656e+05
    9.1698085889e-03    1.0351441406e+05
    9.1797122732e-03    1.0341281250e+05
    9.1899074614e-03    1.0330863281e+05
    9.1998102143e-03    1.0320775781e+05
    9.2097148299e-03    1.0310713281e+05
    9.2199100181e-03    1.0300427344e+05
    9.2298118398e-03    1.0290525000e+05
    9.2397127301e-03    1.0280691406e+05
    9.2499069870e-03    1.0270621875e+05
    9.2598116025e-03    1.0260877344e+05
    9.2697171494e-03    1.0251152344e+05
    9.2799151316e-03    1.0241187500e+05
    9.2898216099e-03    1.0231594531e+05
    9.2997271568e-03    1.0222077344e+05
    9.3099279329e-03    1.0212319531e+05
    9.3198437244e-03    1.0202865625e+05
    9.3297716230e-03    1.0193456250e+05
    9.3399928883e-03    1.0183838281e+05
    9.3499235809e-03    1.0174549219e+05
    9.3598514795e-03    1.0165311719e+05
    9.3697793782e-03    1.0156100781e+05
    9.3797249720e-03    1.0146903906e+05
    9.3899779022e-03    1.0137534375e+05
    9.3999467790e-03    1.0128464844e+05
    9.4099156559e-03    1.0119382031e+05
    9.4198882580e-03    1.0110413281e+05
    9.4298580661e-03    1.0101464844e+05
    9.4398492947e-03    1.0092569531e+05
    9.4498600811e-03    1.0083649219e+05
    9.4598839059e-03    1.0074832031e+05
    9.4699161127e-03    1.0066021094e+05
    9.4799483195e-03    1.0057287500e+05
    9.4899944961e-03    1.0048578906e+05
    9.4997519627e-03    1.0040180469e+05
    9.5098074526e-03    1.0031578125e+05
    9.5198759809e-03    1.0023016406e+05
    9.5299547538e-03    1.0014478125e+05
    9.5397392288e-03    1.0006218750e+05
    9.5498263836e-03    9.9977367188e+04
    9.5599321648e-03    9.9892750000e+04
    9.5697492361e-03    9.9811007812e+04
    9.5798773691e-03    9.9727164062e+04
    9.5897167921e-03    9.9646187500e+04
    9.5998570323e-03    9.9563304688e+04
    9.6097085625e-03    9.9483289062e+04
    9.6198720858e-03    9.9401164062e+04
    9.6297478303e-03    9.9321687500e+04
    9.6399337053e-03    9.9240007812e+04
    9.6498196945e-03    9.9161101562e+04
    9.6597056836e-03    9.9082664062e+04
    9.6698934212e-03    9.9002523438e+04
    9.6797822043e-03    9.8925273438e+04
    9.6899839118e-03    9.8845875000e+04
    9.6998969093e-03    9.8768781250e+04
    9.7098099068e-03    9.8691726562e+04
    9.7197256982e-03    9.8615304688e+04
    9.7299497575e-03    9.8537414062e+04
    9.7398981452e-03    9.8462039062e+04
    9.7498754039e-03    9.8386820312e+04
    9.7598992288e-03    9.8311367188e+04
    9.7697088495e-03    9.8237742188e+04
    9.7799748182e-03    9.8161125000e+04
    9.7898077220e-03    9.8087929688e+04
    9.7998520359e-03    9.8013960938e+04
    9.8097911105e-03    9.7941156250e+04
    9.8199481145e-03    9.7866968750e+04
    9.8299747333e-03    9.7794023438e+04
    9.8398467526e-03    9.7722437500e+04
    9.8499031737e-03    9.7650031250e+04
    9.8597733304e-03    9.7579210938e+04
    9.8698111251e-03    9.7507406250e+04
    9.8796319216e-03    9.7437476562e+04
    9.8899910226e-03    9.7364039062e+04
    9.8997270688e-03    9.7295398438e+04
    9.9099995568e-03    9.7223289062e+04
    9.9196126685e-03    9.7156039062e+04
    9.9297603592e-03    9.7085289062e+04
    9.9396305159e-03    9.7016601562e+04
    9.9496189505e-03    9.6947335938e+04
    9.9597293884e-03    9.6877585938e+04
    9.9699636921e-03    9.6807375000e+04
    9.9798878655e-03    9.6739820312e+04
    9.9899275228e-03    9.6671687500e+04
    9.9996328354e-03    9.6605773438e+04
    1.0009877384e-02    9.6536250000e+04
    1.0019771755e-02    9.6469398438e+04
    1.0029754601e-02    9.6402648438e+04
    1.0039805435e-02    9.6336210938e+04
    1.0049898177e-02    9.6269617188e+04
    1.0059559718e-02    9.6205164062e+04
    1.0069724172e-02    9.6136289062e+04
    1.0079927742e-02    9.6066648438e+04
    1.0089719668e-02    9.6001625000e+04
    1.0099549778e-02    9.5939539062e+04
    1.0109895840e-02    9.5876835938e+04
    1.0119836777e-02    9.5816226562e+04
    1.0129812174e-02    9.5751210938e+04
    1.0139838792e-02    9.5681156250e+04
    1.0149925016e-02    9.5609250000e+04
    1.0159522295e-02    9.5542773438e+04
    1.0169716552e-02    9.5478257812e+04
    1.0179929435e-02    9.5419226562e+04
    1.0189677589e-02    9.5365664062e+04
    1.0199998505e-02    9.5308351562e+04
    1.0209824890e-02    9.5249585938e+04
    1.0219705291e-02    9.5184960938e+04
    1.0229659267e-02    9.5116257812e+04
    1.0239593685e-02    9.5047210938e+04
    1.0249645449e-02    9.4980281250e+04
    1.0259714909e-02    9.4915882812e+04
    1.0269751772e-02    9.4854117188e+04
    1.0279872455e-02    9.4793929688e+04
    1.0289525613e-02    9.4737382812e+04
    1.0299682617e-02    9.4677414062e+04
    1.0309927166e-02    9.4616507812e+04
    1.0319711640e-02    9.4557289062e+04
    1.0329581797e-02    9.4497781250e+04
    1.0339907371e-02    9.4435632812e+04
    1.0349772871e-02    9.4377226562e+04
    1.0359722190e-02    9.4318914062e+04
    1.0369664058e-02    9.4260054688e+04
    1.0379649699e-02    9.4200851562e+04
    1.0389617644e-02    9.4141382812e+04
    1.0399571620e-02    9.4081304688e+04
    1.0409601964e-02    9.4020851562e+04
    1.0419672355e-02    9.3960351562e+04
    1.0429759510e-02    9.3900164062e+04
    1.0439907201e-02    9.3840007812e+04
    1.0449524038e-02    9.3783148438e+04
    1.0459695011e-02    9.3723773438e+04
    1.0469933040e-02    9.3663929688e+04
    1.0479599237e-02    9.3607460938e+04
    1.0489890352e-02    9.3548164062e+04
    1.0499609634e-02    9.3491906250e+04
    1.0509944521e-02    9.3432539062e+04
    1.0519672185e-02    9.3376687500e+04
    1.0529963300e-02    9.3318054688e+04
    1.0539642535e-02    9.3263601562e+04
    1.0549719445e-02    9.3207914062e+04
    1.0559543967e-02    9.3154773438e+04
    1.0569527745e-02    9.3101726562e+04
    1.0579599068e-02    9.3048585938e+04
    1.0589709505e-02    9.2994492188e+04
    1.0599821806e-02    9.2938414062e+04
    1.0609893128e-02    9.2879976562e+04
    1.0619878769e-02    9.2820195312e+04
    1.0629735887e-02    9.2761570312e+04
    1.0639768094e-02    9.2704437500e+04
    1.0649860837e-02    9.2650187500e+04
    1.0659895837e-02    9.2598656250e+04
    1.0669741780e-02    9.2548429688e+04
    1.0679758154e-02    9.2495882812e+04
    1.0689825751e-02    9.2440835938e+04
    1.0699842125e-02    9.2384000000e+04
    1.0709995404e-02    9.2325843750e+04
    1.0719907470e-02    9.2270523438e+04
    1.0729939677e-02    9.2216476562e+04
    1.0739936493e-02    9.2164570312e+04
    1.0749890469e-02    9.2113304688e+04
    1.0759933852e-02    9.2061351562e+04
    1.0769939050e-02    9.2008250000e+04
    1.0779828764e-02    9.1954070312e+04
    1.0789847933e-02    9.1898679688e+04
    1.0799955577e-02    9.1843117188e+04
    1.0809942149e-02    9.1790679688e+04
    1.0819903575e-02    9.1739960938e+04
    1.0829878971e-02    9.1689625000e+04
    1.0839886963e-02    9.1637523438e+04
    1.0849861428e-02    9.1583585938e+04
    1.0859817266e-02    9.1528851562e+04
    1.0869924910e-02    9.1474750000e+04
    1.0879935697e-02    9.1423562500e+04
    1.0889831930e-02    9.1374226562e+04
    1.0899813846e-02    9.1323539062e+04
    1.0909873992e-02    9.1270273438e+04
    1.0919998400e-02    9.1215695312e+04
    1.0929955170e-02    9.1162843750e+04
    1.0939950123e-02    9.1111945312e+04
    1.0949760675e-02    9.1062914062e+04
    1.0959858075e-02    9.1011726562e+04
    1.0969977826e-02    9.0958625000e+04
    1.0979909450e-02    9.0906085938e+04
    1.0989851318e-02    9.0854648438e+04
    1.0999843478e-02    9.0804468750e+04
    1.1009846814e-02    9.0754656250e+04
    1.1019877158e-02    9.0703398438e+04
    1.1029948480e-02    9.0651148438e+04
    1.1039765552e-02    9.0600273438e+04
    1.1049886234e-02    9.0549718750e+04
    1.1059991084e-02    9.0499289062e+04
    1.1069896631e-02    9.0449531250e+04
    1.1079820804e-02    9.0398460938e+04
    1.1089985259e-02    9.0346351562e+04
    1.1099949479e-02    9.0296398438e+04
    1.1109910905e-02    9.0247039062e+04
    1.1119912378e-02    9.0197250000e+04
    1.1129918508e-02    9.0146343750e+04
    1.1139945127e-02    9.0096093750e+04
    1.1149750091e-02    9.0047187500e+04
    1.1159809306e-02    8.9997835938e+04
    1.1169891804e-02    8.9948289062e+04
    1.1179993860e-02    8.9897187500e+04
    1.1189855635e-02    8.9848179688e+04
    1.1199988425e-02    8.9798437500e+04
    1.1209880933e-02    8.9749726562e+04
    1.1219793931e-02    8.9701062500e+04
    1.1229965836e-02    8.9650335938e+04
    1.1239902116e-02    8.9601648438e+04
    1.1249855161e-02    8.9553281250e+04
    1.1259817518e-02    8.9504437500e+04
    1.1269789189e-02    8.9455664062e+04
    1.1279777624e-02    8.9406929688e+04
    1.1289783753e-02    8.9358226562e+04
    1.1299792677e-02    8.9309945312e+04
    1.1309812777e-02    8.9261351562e+04
    1.1319849640e-02    8.9213007812e+04
    1.1329892091e-02    8.9165335938e+04
    1.1339937337e-02    8.9117507812e+04
    1.1349743232e-02    8.9070273438e+04
    1.1359825730e-02    8.9021039062e+04
    1.1369909160e-02    8.8971250000e+04
    1.1379743926e-02    8.8922851562e+04
    1.1389856227e-02    8.8874070312e+04
    1.1399973184e-02    8.8826101562e+04
    1.1409829371e-02    8.8780000000e+04
    1.1419954710e-02    8.8733351562e+04
    1.1429844424e-02    8.8687945312e+04
    1.1439991184e-02    8.8640781250e+04
    1.1449882761e-02    8.8594476562e+04
    1.1459789239e-02    8.8547898438e+04
    1.1469970457e-02    8.8499601562e+04
    1.1479881592e-02    8.8452492188e+04
    1.1489805765e-02    8.8405585938e+04
    1.1499751359e-02    8.8359054688e+04
    1.1509958655e-02    8.8311257812e+04
    1.1519894935e-02    8.8265062500e+04
    1.1529857293e-02    8.8218914062e+04
    1.1539832689e-02    8.8172523438e+04
    1.1549798772e-02    8.8126335938e+04
    1.1559766717e-02    8.8080039062e+04
    1.1569755152e-02    8.8034023438e+04
    1.1579749174e-02    8.7988156250e+04
    1.1589744128e-02    8.7942789062e+04
    1.1599744670e-02    8.7897601562e+04
    1.1609761044e-02    8.7852875000e+04
    1.1619775556e-02    8.7808570312e+04
    1.1629792862e-02    8.7764195312e+04
    1.1639830656e-02    8.7719804688e+04
    1.1649874039e-02    8.7674960938e+04
    1.1659909971e-02    8.7629835938e+04
    1.1669951491e-02    8.7584164062e+04
    1.1679746211e-02    8.7539539062e+04
    1.1689810082e-02    8.7493625000e+04
    1.1699868366e-02    8.7448195312e+04
    1.1709927581e-02    8.7403742188e+04
    1.1719736271e-02    8.7361007812e+04
    1.1729817837e-02    8.7317546875e+04
    1.1739904992e-02    8.7274257812e+04
    1.1749996804e-02    8.7230953125e+04
    1.1759826913e-02    8.7188328125e+04
    1.1769923382e-02    8.7144085938e+04
    1.1779760011e-02    8.7100953125e+04
    1.1789871380e-02    8.7056648438e+04
    1.1799979955e-02    8.7012750000e+04
    1.1809824035e-02    8.6970664062e+04
    1.1819940060e-02    8.6927750000e+04
    1.1829800904e-02    8.6886007812e+04
    1.1839930899e-02    8.6843328125e+04
    1.1849792674e-02    8.6801976562e+04
    1.1859920807e-02    8.6758921875e+04
    1.1869783513e-02    8.6717148438e+04
    1.1879912578e-02    8.6674718750e+04
    1.1889780872e-02    8.6633242188e+04
    1.1899918318e-02    8.6591187500e+04
    1.1909793131e-02    8.6550429688e+04
    1.1919938028e-02    8.6508632812e+04
    1.1929817498e-02    8.6467890625e+04
    1.1939964257e-02    8.6426140625e+04
    1.1949844658e-02    8.6385429688e+04
    1.1959992349e-02    8.6344000000e+04
    1.1969871819e-02    8.6303710938e+04
    1.1979752220e-02    8.6263921875e+04
    1.1989898980e-02    8.6223132812e+04
    1.1999778450e-02    8.6183640625e+04
    1.2009925209e-02    8.6143054688e+04
    1.2019805610e-02    8.6103578125e+04
    1.2029953301e-02    8.6063140625e+04
    1.2039834633e-02    8.6024007812e+04
    1.2049983256e-02    8.5984093750e+04
    1.2059864588e-02    8.5945406250e+04
    1.2069746852e-02    8.5906773438e+04
    1.2079896405e-02    8.5867195312e+04
    1.2089780532e-02    8.5828820312e+04
    1.2099931017e-02    8.5789546875e+04
    1.2109817006e-02    8.5751328125e+04
    1.2119969353e-02    8.5712335938e+04
    1.2129856274e-02    8.5674648438e+04
    1.2139743194e-02    8.5637218750e+04
    1.2149897404e-02    8.5598921875e+04
    1.2159785256e-02    8.5561515625e+04
    1.2169941328e-02    8.5523390625e+04
    1.2179831043e-02    8.5486531250e+04
    1.2189988047e-02    8.5448429688e+04
    1.2199877761e-02    8.5411882812e+04
    1.2209767476e-02    8.5375445312e+04
    1.2219925411e-02    8.5337968750e+04
    1.2229815125e-02    8.5302109375e+04
    1.2239973061e-02    8.5265078125e+04
    1.2249864638e-02    8.5229164062e+04
    1.2259755284e-02    8.5193437500e+04
    1.2269914150e-02    8.5156851562e+04
    1.2279806659e-02    8.5121406250e+04
    1.2289970182e-02    8.5085296875e+04
    1.2299871072e-02    8.5050187500e+04
    1.2309776619e-02    8.5015210938e+04
    1.2319950387e-02    8.4979273438e+04
    1.2329855002e-02    8.4944601562e+04
    1.2339758687e-02    8.4910062500e+04
    1.2349929661e-02    8.4874796875e+04
    1.2359832413e-02    8.4840679688e+04
    1.2369734235e-02    8.4806976562e+04
    1.2379905209e-02    8.4772164062e+04
    1.2389811687e-02    8.4738703125e+04
    1.2399986386e-02    8.4704031250e+04
    1.2409892865e-02    8.4671031250e+04
    1.2419799343e-02    8.4637476562e+04
    1.2429973111e-02    8.4603546875e+04
    1.2439880520e-02    8.4570984375e+04
    1.2449788861e-02    8.4537960938e+04
    1.2459965423e-02    8.4504703125e+04
    1.2469872832e-02    8.4472500000e+04
    1.2479781173e-02    8.4440085938e+04
    1.2489956804e-02    8.4407023438e+04
    1.2499865144e-02    8.4375296875e+04
    1.2509773485e-02    8.4343632812e+04
    1.2519950047e-02    8.4311046875e+04
    1.2529858388e-02    8.4279585938e+04
    1.2539767660e-02    8.4248328125e+04
    1.2549944222e-02    8.4216367188e+04
    1.2559853494e-02    8.4185421875e+04
    1.2569761835e-02    8.4154703125e+04
    1.2579938397e-02    8.4123492188e+04
    1.2589847669e-02    8.4093078125e+04
    1.2599756941e-02    8.4062750000e+04
    1.2609934434e-02    8.4032203125e+04
    1.2619843706e-02    8.4002250000e+04
    1.2629752979e-02    8.3972265625e+04
    1.2639929540e-02    8.3941820312e+04
    1.2649838813e-02    8.3912132812e+04
    1.2659749016e-02    8.3882906250e+04
    1.2669926509e-02    8.3852843750e+04
    1.2679836713e-02    8.3823632812e+04
    1.2689745985e-02    8.3794960938e+04
    1.2699923478e-02    8.3765679688e+04
    1.2709833682e-02    8.3737320312e+04
    1.2719743885e-02    8.3709273438e+04
    1.2729921378e-02    8.3680210938e+04
    1.2739831582e-02    8.3652218750e+04
    1.2749741785e-02    8.3624367188e+04
    1.2759919278e-02    8.3595835938e+04
    1.2769829482e-02    8.3568312500e+04
    1.2779740617e-02    8.3540851562e+04
    1.2789919041e-02    8.3512906250e+04
    1.2799829245e-02    8.3485906250e+04
    1.2809739448e-02    8.3459078125e+04
    1.2819917873e-02    8.3431765625e+04
    1.2829829007e-02    8.3405335938e+04
    1.2839739211e-02    8.3378875000e+04
    1.2849917635e-02    8.3351851562e+04
    1.2859828770e-02    8.3325835938e+04
    1.2869739905e-02    8.3299929688e+04
    1.2879918329e-02    8.3273492188e+04
    1.2889829464e-02    8.3248273438e+04
    1.2899740599e-02    8.3222937500e+04
    1.2909919955e-02    8.3196765625e+04
    1.2919831090e-02    8.3171789062e+04
    1.2929742225e-02    8.3146539062e+04
    1.2939921580e-02    8.3121007812e+04
    1.2949833646e-02    8.3096765625e+04
    1.2959744781e-02    8.3072203125e+04
    1.2969924137e-02    8.3047187500e+04
    1.2979836203e-02    8.3022648438e+04
    1.2989748269e-02    8.2998617188e+04
    1.2999927625e-02    8.2974695312e+04
    1.3009839691e-02    8.2951179688e+04
    1.3019750826e-02    8.2927445312e+04
    1.3029931113e-02    8.2903734375e+04
    1.3039844111e-02    8.2881007812e+04
    1.3049756177e-02    8.2857632812e+04
    1.3059937395e-02    8.2834250000e+04
    1.3069850393e-02    8.2811734375e+04
    1.3079763390e-02    8.2788765625e+04
    1.3089943677e-02    8.2765632812e+04
    1.3099856675e-02    8.2742953125e+04
    1.3109770603e-02    8.2720523438e+04
    1.3119951822e-02    8.2697976562e+04
    1.3129865751e-02    8.2676093750e+04
    1.3139779679e-02    8.2654687500e+04
    1.3149961829e-02    8.2632570312e+04
    1.3159876689e-02    8.2611335938e+04
    1.3169790618e-02    8.2590265625e+04
    1.3179972768e-02    8.2568976562e+04
    1.3189886697e-02    8.2548296875e+04
    1.3199801557e-02    8.2527765625e+04
    1.3209984638e-02    8.2506812500e+04
    1.3219899498e-02    8.2486687500e+04
    1.3229815289e-02    8.2466562500e+04
    1.3239999302e-02    8.2445843750e+04
    1.3249915093e-02    8.2425945312e+04
    1.3259830885e-02    8.2406125000e+04
    1.3269746676e-02    8.2386476562e+04
    1.3279931620e-02    8.2366296875e+04
    1.3289848343e-02    8.2346765625e+04
    1.3299765065e-02    8.2327843750e+04
    1.3309950009e-02    8.2308460938e+04
    1.3319866732e-02    8.2289867188e+04
    1.3329784386e-02    8.2271289062e+04
    1.3339969330e-02    8.2252460938e+04
    1.3349886984e-02    8.2234265625e+04
    1.3359804638e-02    8.2216031250e+04
    1.3369989581e-02    8.2197406250e+04
    1.3379907236e-02    8.2179484375e+04
    1.3389825821e-02    8.2161742188e+04
    1.3399743475e-02    8.2144156250e+04
    1.3409930281e-02    8.2126257812e+04
    1.3419849798e-02    8.2109062500e+04
    1.3429769315e-02    8.2092062500e+04
    1.3439956121e-02    8.2074679688e+04
    1.3449875638e-02    8.2057859375e+04
    1.3459795155e-02    8.2041226562e+04
    1.3469982892e-02    8.2024226562e+04
    1.3479902409e-02    8.2007781250e+04
    1.3489821926e-02    8.1991578125e+04
    1.3499742374e-02    8.1975648438e+04
    1.3509931043e-02    8.1959437500e+04
    1.3519851491e-02    8.1943710938e+04
    1.3529772870e-02    8.1928164062e+04
    1.3539961539e-02    8.1912257812e+04
    1.3549882919e-02    8.1896750000e+04
    1.3559803367e-02    8.1881609375e+04
    1.3569992967e-02    8.1866546875e+04
    1.3579914346e-02    8.1851812500e+04
    1.3589836657e-02    8.1836859375e+04
    1.3599758968e-02    8.1822406250e+04
    1.3609948568e-02    8.1808015625e+04
    1.3619870879e-02    8.1793843750e+04
    1.3629794121e-02    8.1779679688e+04
    1.3639984652e-02    8.1765390625e+04
    1.3649907894e-02    8.1751546875e+04
    1.3659831136e-02    8.1737750000e+04
    1.3669754378e-02    8.1724382812e+04
    1.3679945841e-02    8.1710656250e+04
    1.3689869083e-02    8.1697312500e+04
    1.3699793257e-02    8.1684484375e+04
    1.3709985651e-02    8.1671171875e+04
    1.3719909824e-02    8.1658585938e+04
    1.3729833998e-02    8.1646007812e+04
    1.3739759102e-02    8.1633632812e+04
    1.3749951497e-02    8.1620914062e+04
    1.3759875670e-02    8.1608867188e+04
    1.3769800775e-02    8.1596820312e+04
    1.3779994100e-02    8.1584562500e+04
    1.3789920136e-02    8.1572867188e+04
    1.3799845241e-02    8.1561406250e+04
    1.3809771277e-02    8.1550007812e+04
    1.3819964603e-02    8.1538609375e+04
    1.3829890639e-02    8.1527500000e+04
    1.3839816675e-02    8.1516437500e+04
    1.3849743642e-02    8.1505601562e+04
    1.3859937899e-02    8.1494570312e+04
    1.3869864866e-02    8.1483914062e+04
    1.3879791833e-02    8.1473453125e+04
    1.3889986090e-02    8.1462742188e+04
    1.3899913058e-02    8.1452445312e+04
    1.3909840956e-02    8.1442468750e+04
    1.3919768855e-02    8.1432718750e+04
    1.3929964043e-02    8.1422914062e+04
    1.3939891942e-02    8.1413375000e+04
    1.3949819840e-02    8.1403906250e+04
    1.3959747739e-02    8.1394914062e+04
    1.3969943859e-02    8.1385500000e+04
    1.3979872689e-02    8.1376265625e+04
    1.3989801519e-02    8.1367757812e+04
    1.3999998569e-02    8.1358726562e+04
    1.4009927399e-02    8.1349648438e+04
    1.4019856229e-02    8.1341578125e+04
    1.4029785059e-02    8.1333390625e+04
    1.4039983042e-02    8.1324609375e+04
    1.4049911872e-02    8.1317062500e+04
    1.4059841633e-02    8.1309023438e+04
    1.4069771394e-02    8.1300953125e+04
    1.4079969376e-02    8.1293328125e+04
    1.4089900069e-02    8.1285625000e+04
    1.4099829830e-02    8.1278765625e+04
    1.4109760523e-02    8.1271328125e+04
    1.4119959436e-02    8.1263898438e+04
    1.4129890129e-02    8.1256851562e+04
    1.4139820822e-02    8.1250015625e+04
    1.4149751514e-02    8.1243570312e+04
    1.4159950428e-02    8.1237000000e+04
    1.4169882052e-02    8.1230421875e+04
    1.4179813676e-02    8.1223945312e+04
    1.4189745300e-02    8.1217617188e+04
    1.4199945144e-02    8.1211664062e+04
    1.4209876768e-02    8.1206109375e+04
    1.4219808392e-02    8.1200468750e+04
    1.4229740947e-02    8.1194726562e+04
    1.4239940792e-02    8.1188812500e+04
    1.4249873348e-02    8.1183375000e+04
    1.4259805903e-02    8.1177945312e+04
    1.4269738458e-02    8.1172773438e+04
    1.4279939234e-02    8.1168492188e+04
    1.4289872721e-02    8.1164109375e+04
    1.4299805276e-02    8.1158960938e+04
    1.4309738763e-02    8.1154718750e+04
    1.4319940470e-02    8.1150773438e+04
    1.4329873025e-02    8.1145828125e+04
    1.4339806512e-02    8.1141671875e+04
    1.4349739999e-02    8.1138367188e+04
    1.4359942637e-02    8.1133890625e+04
    1.4369876124e-02    8.1129953125e+04
    1.4379809611e-02    8.1126921875e+04
    1.4389744028e-02    8.1123507812e+04
    1.4399946667e-02    8.1120179688e+04
    1.4409881085e-02    8.1117679688e+04
    1.4419815503e-02    8.1114664062e+04
    1.4429749921e-02    8.1111750000e+04
    1.4439953491e-02    8.1109140625e+04
    1.4449887909e-02    8.1106453125e+04
    1.4459822327e-02    8.1104296875e+04
    1.4469757676e-02    8.1102187500e+04
    1.4479961246e-02    8.1100093750e+04
    1.4489896595e-02    8.1098164062e+04
    1.4499831945e-02    8.1096328125e+04
    1.4509767294e-02    8.1094882812e+04
    1.4519970864e-02    8.1093796875e+04
    1.4529906213e-02    8.1093054688e+04
    1.4539842494e-02    8.1092679688e+04
    1.4549777843e-02    8.1092460938e+04
    1.4559982345e-02    8.1092515625e+04
    1.4569918625e-02    8.1092632812e+04
    1.4579854906e-02    8.1092726562e+04
    1.4589790255e-02    8.1092648438e+04
    1.4599995688e-02    8.1092507812e+04
    1.4609931968e-02    8.1092320312e+04
    1.4619868249e-02    8.1091765625e+04
    1.4629804529e-02    8.1091328125e+04
    1.4639740810e-02    8.1091695312e+04
    1.4649946243e-02    8.1092335938e+04
    1.4659883454e-02    8.1092632812e+04
    1.4669820666e-02    8.1094375000e+04
    1.4679756947e-02    8.1096914062e+04
    1.4689963311e-02    8.1098460938e+04
    1.4699900523e-02    8.1100750000e+04
    1.4709837735e-02    8.1104031250e+04
    1.4719774947e-02    8.1106429688e+04
    1.4729980379e-02    8.1108820312e+04
    1.4739917591e-02    8.1111718750e+04
    1.4749855734e-02    8.1114382812e+04
    1.4759792946e-02    8.1116875000e+04
    1.4769999310e-02    8.1120117188e+04
    1.4779936522e-02    8.1123476562e+04
    1.4789874665e-02    8.1126882812e+04
    1.4799811877e-02    8.1130671875e+04
    1.4809750021e-02    8.1134578125e+04
    1.4819956385e-02    8.1138945312e+04
    1.4829894528e-02    8.1143546875e+04
    1.4839832671e-02    8.1148453125e+04
    1.4849770814e-02    8.1153609375e+04
    1.4859977178e-02    8.1159375000e+04
    1.4869915321e-02    8.1165398438e+04
    1.4879853465e-02    8.1171906250e+04
    1.4889791608e-02    8.1178718750e+04
    1.4899998903e-02    8.1185976562e+04
    1.4909937046e-02    8.1193250000e+04
    1.4919875190e-02    8.1200695312e+04
    1.4929813333e-02    8.1208242188e+04
    1.4939752407e-02    8.1215812500e+04
    1.4949958771e-02    8.1223679688e+04
    1.4959897846e-02    8.1231632812e+04
    1.4969835989e-02    8.1239859375e+04
    1.4979774132e-02    8.1248007812e+04
    1.4989981428e-02    8.1256367188e+04
    1.4999920502e-02    8.1265195312e+04
    1.5009858645e-02    8.1274500000e+04
    1.5019796789e-02    8.1283632812e+04
    1.5029735863e-02    8.1293492188e+04
    1.5039943159e-02    8.1304796875e+04
    1.5049881302e-02    8.1315632812e+04
    1.5059820376e-02    8.1326726562e+04
    1.5069758520e-02    8.1338937500e+04
    1.5079965815e-02    8.1351273438e+04
    1.5089904889e-02    8.1362914062e+04
    1.5099843033e-02    8.1375304688e+04
    1.5109782107e-02    8.1387992188e+04
    1.5119989403e-02    8.1400976562e+04
    1.5129927546e-02    8.1414156250e+04
    1.5139866620e-02    8.1427625000e+04
    1.5149804763e-02    8.1441156250e+04
    1.5159742907e-02    8.1455078125e+04
    1.5169950202e-02    8.1469828125e+04
    1.5179889277e-02    8.1484742188e+04
    1.5189827420e-02    8.1500218750e+04
    1.5199766494e-02    8.1516132812e+04
    1.5209973790e-02    8.1532742188e+04
    1.5219911933e-02    8.1549156250e+04
    1.5229850076e-02    8.1565781250e+04
    1.5239789151e-02    8.1582593750e+04
    1.5249995515e-02    8.1600085938e+04
    1.5259934589e-02    8.1617335938e+04
    1.5269872732e-02    8.1634945312e+04
    1.5279811807e-02    8.1652976562e+04
    1.5289749950e-02    8.1671476562e+04
    1.5299957246e-02    8.1690875000e+04
    1.5309895389e-02    8.1710093750e+04
    1.5319833532e-02    8.1729703125e+04
    1.5329772606e-02    8.1749789062e+04
    1.5339978971e-02    8.1770679688e+04
    1.5349917114e-02    8.1791054688e+04
    1.5359856188e-02    8.1811726562e+04
    1.5369794331e-02    8.1832937500e+04
    1.5379732475e-02    8.1854296875e+04
    1.5389939770e-02    8.1876414062e+04
    1.5399877913e-02    8.1898687500e+04
    1.5409816056e-02    8.1921335938e+04
    1.5419754200e-02    8.1944007812e+04
    1.5429960564e-02    8.1968093750e+04
    1.5439899638e-02    8.1992140625e+04
    1.5449837781e-02    8.2015929688e+04
    1.5459775925e-02    8.2039960938e+04
    1.5469983220e-02    8.2065265625e+04
    1.5479921363e-02    8.2089968750e+04
    1.5489860438e-02    8.2115015625e+04
    1.5499798581e-02    8.2140750000e+04
    1.5509737656e-02    8.2166914062e+04
    1.5519945882e-02    8.2194335938e+04
    1.5529884957e-02    8.2221554688e+04
    1.5539824031e-02    8.2249156250e+04
    1.5549764037e-02    8.2277070312e+04
    1.5559973195e-02    8.2305937500e+04
    1.5569913201e-02    8.2334085938e+04
    1.5579853207e-02    8.2362195312e+04
    1.5589793213e-02    8.2390312500e+04
    1.5599734150e-02    8.2418507812e+04
    1.5609943308e-02    8.2447695312e+04
    1.5619884245e-02    8.2476453125e+04
    1.5629826114e-02    8.2505695312e+04
    1.5639768913e-02    8.2535507812e+04
    1.5649978071e-02    8.2566781250e+04
    1.5659920871e-02    8.2597851562e+04
    1.5669861808e-02    8.2629492188e+04
    1.5679804608e-02    8.2661726562e+04
    1.5689749271e-02    8.2694585938e+04
    1.5699960291e-02    8.2728859375e+04
    1.5709904954e-02    8.2762429688e+04
    1.5719847754e-02    8.2796062500e+04
    1.5729792416e-02    8.2829937500e+04
    1.5739737079e-02    8.2863976562e+04
    1.5749949962e-02    8.2898828125e+04
    1.5759894624e-02    8.2932953125e+04
    1.5769841149e-02    8.2967484375e+04
    1.5779787675e-02    8.3002015625e+04
    1.5789734200e-02    8.3036640625e+04
    1.5799948946e-02    8.3072921875e+04
    1.5809895471e-02    8.3108656250e+04
    1.5819841996e-02    8.3144414062e+04
    1.5829790384e-02    8.3180664062e+04
    1.5839736909e-02    8.3217546875e+04
    1.5849955380e-02    8.3255671875e+04
    1.5859903768e-02    8.3293203125e+04
    1.5869852155e-02    8.3331265625e+04
    1.5879802406e-02    8.3369632812e+04
    1.5889754519e-02    8.3408312500e+04
    1.5899976715e-02    8.3448375000e+04
    1.5909928828e-02    8.3487625000e+04
    1.5919880942e-02    8.3527156250e+04
    1.5929833055e-02    8.3567046875e+04
    1.5939785168e-02    8.3607281250e+04
    1.5949737281e-02    8.3647835938e+04
    1.5959957615e-02    8.3689804688e+04
    1.5969909728e-02    8.3730976562e+04
    1.5979863703e-02    8.3772539062e+04
    1.5989815816e-02    8.3814570312e+04
    1.5999771655e-02    8.3857085938e+04
    1.6009995714e-02    8.3901210938e+04
    1.6019949690e-02    8.3944578125e+04
    1.6029903665e-02    8.3988343750e+04
    1.6039859504e-02    8.4032570312e+04
    1.6049817204e-02    8.4077375000e+04
    1.6059773043e-02    8.4122828125e+04
    1.6069998965e-02    8.4170054688e+04
    1.6079956666e-02    8.4216382812e+04
    1.6089916229e-02    8.4263125000e+04
    1.6099875793e-02    8.4310429688e+04
    1.6109835356e-02    8.4358140625e+04
    1.6119796783e-02    8.4405984375e+04
    1.6129758209e-02    8.4454125000e+04
    1.6139989719e-02    8.4504132812e+04
    1.6149954870e-02    8.4553234375e+04
    1.6159921885e-02    8.4602828125e+04
    1.6169888899e-02    8.4653296875e+04
    1.6179855913e-02    8.4704507812e+04
    1.6189826652e-02    8.4756281250e+04
    1.6199797392e-02    8.4808914062e+04
    1.6209768131e-02    8.4862585938e+04
    1.6219738871e-02    8.4917117188e+04
    1.6229981557e-02    8.4974117188e+04
    1.6239956021e-02    8.5030734375e+04
    1.6249930486e-02    8.5088265625e+04
    1.6259906814e-02    8.5146531250e+04
    1.6269883141e-02    8.5205398438e+04
    1.6279861331e-02    8.5264742188e+04
    1.6289843246e-02    8.5324539062e+04
    1.6299825162e-02    8.5384843750e+04
    1.6309808940e-02    8.5445648438e+04
    1.6319794580e-02    8.5506960938e+04
    1.6329780221e-02    8.5568773438e+04
    1.6339767724e-02    8.5631031250e+04
    1.6349758953e-02    8.5693742188e+04
    1.6359748319e-02    8.5756906250e+04
    1.6369741410e-02    8.5820570312e+04
    1.6379732639e-02    8.5884804688e+04
    1.6389997676e-02    8.5951406250e+04
    1.6399996355e-02    8.6016929688e+04
    1.6409995034e-02    8.6083578125e+04
    1.6419995576e-02    8.6164578125e+04
    1.6429997981e-02    8.6585656250e+04
    1.6439732164e-02    9.1174625000e+04
    1.6449736431e-02    9.6711789062e+04
    1.6459746286e-02    9.6055351562e+04
    1.6469754279e-02    9.5931820312e+04
    1.6479762271e-02    9.6065632812e+04
    1.6489775851e-02    9.5987617188e+04
    1.6499791294e-02    9.5902726562e+04
    1.6509808600e-02    9.5871757812e+04
    1.6519827768e-02    9.5836968750e+04
    1.6529845074e-02    9.5775257812e+04
    1.6539866105e-02    9.5718023438e+04
    1.6549892724e-02    9.5681218750e+04
    1.6559917480e-02    9.5645289062e+04
    1.6569945961e-02    9.5590210938e+04
    1.6579976305e-02    9.5540500000e+04
    1.6589732841e-02    9.5502523438e+04
    1.6599766910e-02    9.5465726562e+04
    1.6609804705e-02    9.5423976562e+04
    1.6619840637e-02    9.5376835938e+04
    1.6629882157e-02    9.5335367188e+04
    1.6639923677e-02    9.5300601562e+04
    1.6649965197e-02    9.5264226562e+04
    1.6659744084e-02    9.5226039062e+04
    1.6669789329e-02    9.5187851562e+04
    1.6679834574e-02    9.5150898438e+04
    1.6689889133e-02    9.5115250000e+04
    1.6699947417e-02    9.5081593750e+04
    1.6709733754e-02    9.5050429688e+04
    1.6719795763e-02    9.5016898438e+04
    1.6729854047e-02    9.4983054688e+04
    1.6739914194e-02    9.4950445312e+04
    1.6749983653e-02    9.4919554688e+04
    1.6759779304e-02    9.4890210938e+04
    1.6769848764e-02    9.4860343750e+04
    1.6779920086e-02    9.4831351562e+04
    1.6789987683e-02    9.4803062500e+04
    1.6799787059e-02    9.4776101562e+04
    1.6809867695e-02    9.4748632812e+04
    1.6819946468e-02    9.4721960938e+04
    1.6829757020e-02    9.4696601562e+04
    1.6839843243e-02    9.4671289062e+04
    1.6849927604e-02    9.4646554688e+04
    1.6859745607e-02    9.4622976562e+04
    1.6869839281e-02    9.4599812500e+04
    1.6879929230e-02    9.4576757812e+04
    1.6889754683e-02    9.4555351562e+04
    1.6899855807e-02    9.4532929688e+04
    1.6909956932e-02    9.4511960938e+04
    1.6919787973e-02    9.4490937500e+04
    1.6929892823e-02    9.4470460938e+04
    1.6939995810e-02    9.4450968750e+04
    1.6949834302e-02    9.4431632812e+04
    1.6959946603e-02    9.4413320312e+04
    1.6969786957e-02    9.4396335938e+04
    1.6979904845e-02    9.4379445312e+04
    1.6989747062e-02    9.4363601562e+04
    1.6999863088e-02    9.4347867188e+04
    1.7009990290e-02    9.4332257812e+04
    1.7019841820e-02    9.4317367188e+04
    1.7029969022e-02    9.4302242188e+04
    1.7039828002e-02    9.4288023438e+04
    1.7049957067e-02    9.4273960938e+04
    1.7059816048e-02    9.4261085938e+04
    1.7069954425e-02    9.4248554688e+04
    1.7079817131e-02    9.4237000000e+04
    1.7089959234e-02    9.4225585938e+04
    1.7099831253e-02    9.4214867188e+04
    1.7109975219e-02    9.4204195312e+04
    1.7119849101e-02    9.4194179688e+04
    1.7130000517e-02    9.4184406250e+04
    1.7139874399e-02    9.4175460938e+04
    1.7149753869e-02    9.4167179688e+04
    1.7159914598e-02    9.4159210938e+04
    1.7169797793e-02    9.4151929688e+04
    1.7179962248e-02    9.4144835938e+04
    1.7189852893e-02    9.4138242188e+04
    1.7199741676e-02    9.4132125000e+04
    1.7209911719e-02    9.4126429688e+04
    1.7219809815e-02    9.4121539062e+04
    1.7229983583e-02    9.4116593750e+04
    1.7239887267e-02    9.4112742188e+04
    1.7249790952e-02    9.4108867188e+04
    1.7259972170e-02    9.4106187500e+04
    1.7269883305e-02    9.4102960938e+04
    1.7279794440e-02    9.4101210938e+04
    1.7289983109e-02    9.4099585938e+04
    1.7299899831e-02    9.4097867188e+04
    1.7309818417e-02    9.4097476562e+04
    1.7319737002e-02    9.4097523438e+04
    1.7329936847e-02    9.4097914062e+04
    1.7339861020e-02    9.4098695312e+04
    1.7349788919e-02    9.4099750000e+04
    1.7359998077e-02    9.4101210938e+04
    1.7369931564e-02    9.4103039062e+04
    1.7379866913e-02    9.4105367188e+04
    1.7389807850e-02    9.4108226562e+04
    1.7399748787e-02    9.4111585938e+04
    1.7409970984e-02    9.4115523438e+04
    1.7419921234e-02    9.4119851562e+04
    1.7429873347e-02    9.4124710938e+04
    1.7439827323e-02    9.4129992188e+04
    1.7449785024e-02    9.4135664062e+04
    1.7459742725e-02    9.4141710938e+04
    1.7469979823e-02    9.4148351562e+04
    1.7479944974e-02    9.4155320312e+04
    1.7489910126e-02    9.4162812500e+04
    1.7499879003e-02    9.4170773438e+04
    1.7509849742e-02    9.4179085938e+04
    1.7519824207e-02    9.4187664062e+04
    1.7529796809e-02    9.4196468750e+04
    1.7539774999e-02    9.4205585938e+04
    1.7549753189e-02    9.4215023438e+04
    1.7559733242e-02    9.4224898438e+04
    1.7569994554e-02    9.4235718750e+04
    1.7579976469e-02    9.4246968750e+04
    1.7589963973e-02    9.4258851562e+04
    1.7599951476e-02    9.4271101562e+04
    1.7609940842e-02    9.4283320312e+04
    1.7619932070e-02    9.4295562500e+04
    1.7629927024e-02    9.4307742188e+04
    1.7639920115e-02    9.4319804688e+04
    1.7649916932e-02    9.4331968750e+04
    1.7659917474e-02    9.4344148438e+04
    1.7669918016e-02    9.4356664062e+04
    1.7679924145e-02    9.4369492188e+04
    1.7689930275e-02    9.4382500000e+04
    1.7699934542e-02    9.4395789062e+04
    1.7709936947e-02    9.4409273438e+04
    1.7719933763e-02    9.4422695312e+04
    1.7729923129e-02    9.4436031250e+04
    1.7739906907e-02    9.4449406250e+04
    1.7749886960e-02    9.4462679688e+04
    1.7759863287e-02    9.4475742188e+04
    1.7769837752e-02    9.4488617188e+04
    1.7779935151e-02    9.4501460938e+04
    1.7789922655e-02    9.4513867188e+04
    1.7799787223e-02    9.4525835938e+04
    1.7809810117e-02    9.4537710938e+04
    1.7819983885e-02    9.4549492188e+04
    1.7829703167e-02    9.4560539062e+04
    1.7839869484e-02    9.4571937500e+04
    1.7849860713e-02    9.4583007812e+04
    1.7859986052e-02    9.4594132812e+04
    1.7869926989e-02    9.4605039062e+04
    1.7879998311e-02    9.4616226562e+04
    1.7889859155e-02    9.4627304688e+04
    1.7899837345e-02    9.4638648438e+04
    1.7909938470e-02    9.4650164062e+04
    1.7919812351e-02    9.4661304688e+04
    1.7929799855e-02    9.4672164062e+04
    1.7939895391e-02    9.4682304688e+04
    1.7949743196e-02    9.4691000000e+04
    1.7959699035e-02    9.4698351562e+04
    1.7969759181e-02    9.4704218750e+04
    1.7979906872e-02    9.4708835938e+04
    1.7989790067e-02    9.4712468750e+04
    1.7999768257e-02    9.4715976562e+04
    1.8009822816e-02    9.4720054688e+04
    1.8019961193e-02    9.4725125000e+04
    1.8029790372e-02    9.4730992188e+04
    1.8039673567e-02    9.4737539062e+04
    1.8049959093e-02    9.4744710938e+04
    1.8059782684e-02    9.4751523438e+04
    1.8069749698e-02    9.4758093750e+04
    1.8079960719e-02    9.4764617188e+04
    1.8089918420e-02    9.4770906250e+04
    1.8099887297e-02    9.4777117188e+04
    1.8109865487e-02    9.4783179688e+04
    1.8119854853e-02    9.4789187500e+04
    1.8129860982e-02    9.4795242188e+04
    1.8139885738e-02    9.4801320312e+04
    1.8149925396e-02    9.4807437500e+04
    1.8159968778e-02    9.4813656250e+04
    1.8169762567e-02    9.4819773438e+04
    1.8179818988e-02    9.4826031250e+04
    1.8189884722e-02    9.4832226562e+04
    1.8199956045e-02    9.4838406250e+04
    1.8209772184e-02    9.4844406250e+04
    1.8219849095e-02    9.4850585938e+04
    1.8229926005e-02    9.4856843750e+04
    1.8239749596e-02    9.4863000000e+04
    1.8249832094e-02    9.4869320312e+04
    1.8259916455e-02    9.4875617188e+04
    1.8269749358e-02    9.4881726562e+04
    1.8279846758e-02    9.4888007812e+04
    1.8289955333e-02    9.4894289062e+04
    1.8299810588e-02    9.4900476562e+04
    1.8309934065e-02    9.4906898438e+04
    1.8319806084e-02    9.4913148438e+04
    1.8329944462e-02    9.4919539062e+04
    1.8339829519e-02    9.4925757812e+04
    1.8349980935e-02    9.4932164062e+04
    1.8359879032e-02    9.4938492188e+04
    1.8369784579e-02    9.4944851562e+04
    1.8379954621e-02    9.4951367188e+04
    1.8389871344e-02    9.4957695312e+04
    1.8399793655e-02    9.4964062500e+04
    1.8409982324e-02    9.4970656250e+04
    1.8419915810e-02    9.4977085938e+04
    1.8429854885e-02    9.4983500000e+04
    1.8439797685e-02    9.4989937500e+04
    1.8449755386e-02    9.4996398438e+04
    1.8459979445e-02    9.5003031250e+04
    1.8469953910e-02    9.5009523438e+04
    1.8479939550e-02    9.5016054688e+04
    1.8489938229e-02    9.5022570312e+04
    1.8499951810e-02    9.5029070312e+04
    1.8509980291e-02    9.5035601562e+04
    1.8519753590e-02    9.5042023438e+04
    1.8529796973e-02    9.5048570312e+04
    1.8539849669e-02    9.5055117188e+04
    1.8549913540e-02    9.5061687500e+04
    1.8559997901e-02    9.5068242188e+04
    1.8569843844e-02    9.5074625000e+04
    1.8579982221e-02    9.5081210938e+04
    1.8589869142e-02    9.5087648438e+04
    1.8599763513e-02    9.5094085938e+04
    1.8609939143e-02    9.5100695312e+04
    1.8619852141e-02    9.5107148438e+04
    1.8629772589e-02    9.5113625000e+04
    1.8639972433e-02    9.5120281250e+04
    1.8649937585e-02    9.5126781250e+04
    1.8659938127e-02    9.5133304688e+04
    1.8669966608e-02    9.5139843750e+04
    1.8679738045e-02    9.5146210938e+04
    1.8689794466e-02    9.5152718750e+04
    1.8699858338e-02    9.5159187500e+04
    1.8709929660e-02    9.5165585938e+04
    1.8719747663e-02    9.5171750000e+04
    1.8729854375e-02    9.5178085938e+04
    1.8739979714e-02    9.5184406250e+04
    1.8749849871e-02    9.5190570312e+04
    1.8759746104e-02    9.5196695312e+04
    1.8769944087e-02    9.5202914062e+04
    1.8779881299e-02    9.5208929688e+04
    1.8789831549e-02    9.5214914062e+04
    1.8799789250e-02    9.5220929688e+04
    1.8809761852e-02    9.5226945312e+04
    1.8819747493e-02    9.5232992188e+04
    1.8829751760e-02    9.5239085938e+04
    1.8839765340e-02    9.5245148438e+04
    1.8849788234e-02    9.5251125000e+04
    1.8859822303e-02    9.5257039062e+04
    1.8869880587e-02    9.5262906250e+04
    1.8879961222e-02    9.5268687500e+04
    1.8889775500e-02    9.5274226562e+04
    1.8899876624e-02    9.5279882812e+04
    1.8909985200e-02    9.5285476562e+04
    1.8919827417e-02    9.5290851562e+04
    1.8929960206e-02    9.5296289062e+04
    1.8939822912e-02    9.5301562500e+04
    1.8949981779e-02    9.5306960938e+04
    1.8959870562e-02    9.5312195312e+04
    1.8969768658e-02    9.5317406250e+04
    1.8979961053e-02    9.5322757812e+04
    1.8989879638e-02    9.5327960938e+04
    1.8999803811e-02    9.5333125000e+04
    1.9009729847e-02    9.5338281250e+04
    1.9019953907e-02    9.5343539062e+04
    1.9029911608e-02    9.5348570312e+04
    1.9039878622e-02    9.5353492188e+04
    1.9049853086e-02    9.5358289062e+04
    1.9059833139e-02    9.5362992188e+04
    1.9069822505e-02    9.5367625000e+04
    1.9079815596e-02    9.5372250000e+04
    1.9089810550e-02    9.5376867188e+04
    1.9099807367e-02    9.5381468750e+04
    1.9109807909e-02    9.5386023438e+04
    1.9119812176e-02    9.5390523438e+04
    1.9129829481e-02    9.5394960938e+04
    1.9139859825e-02    9.5399335938e+04
    1.9149892032e-02    9.5403625000e+04
    1.9159929827e-02    9.5407812500e+04
    1.9169965759e-02    9.5411937500e+04
    1.9179722294e-02    9.5415914062e+04
    1.9189769402e-02    9.5419976562e+04
    1.9199818373e-02    9.5424000000e+04
    1.9209869206e-02    9.5427968750e+04
    1.9219921902e-02    9.5431882812e+04
    1.9229980186e-02    9.5435687500e+04
    1.9239755347e-02    9.5439289062e+04
    1.9249826670e-02    9.5442914062e+04
    1.9259901717e-02    9.5446500000e+04
    1.9269976765e-02    9.5450007812e+04
    1.9279766828e-02    9.5453351562e+04
    1.9289845601e-02    9.5456757812e+04
    1.9299926236e-02    9.5460117188e+04
    1.9309721887e-02    9.5463312500e+04
    1.9319804385e-02    9.5466539062e+04
    1.9329888746e-02    9.5469710938e+04
    1.9339973107e-02    9.5472789062e+04
    1.9349770620e-02    9.5475718750e+04
    1.9359854981e-02    9.5478664062e+04
    1.9369937479e-02    9.5481554688e+04
    1.9379734993e-02    9.5484320312e+04
    1.9389819354e-02    9.5487101562e+04
    1.9399903715e-02    9.5489835938e+04
    1.9409989938e-02    9.5492492188e+04
    1.9419787452e-02    9.5495023438e+04
    1.9429873675e-02    9.5497562500e+04
    1.9439959899e-02    9.5500054688e+04
[...]
    1.1513994634e-01    1.0121521094e+05
    1.1514990032e-01    1.0121521094e+05
    1.1515986174e-01    1.0121521094e+05
    1.1516981572e-01    1.0121521094e+05
    1.1517976969e-01    1.0121519531e+05
    1.1518973112e-01    1.0121519531e+05
    1.1519999802e-01    1.0121518750e+05
    1.1520995200e-01    1.0121518750e+05
    1.1521991342e-01    1.0121517969e+05
    1.1522986740e-01    1.0121516406e+05
    1.1523982137e-01    1.0121516406e+05
    1.1524978280e-01    1.0121516406e+05
    1.1525973678e-01    1.0121516406e+05
    1.1526969820e-01    1.0121515625e+05
    1.1527996510e-01    1.0121515625e+05
    1.1528991908e-01    1.0121514844e+05
    1.1529988050e-01    1.0121514844e+05
    1.1530983448e-01    1.0121514844e+05
    1.1531978846e-01    1.0121514844e+05
    1.1532974988e-01    1.0121514844e+05
    1.1533970386e-01    1.0121513281e+05
    1.1534997076e-01    1.0121513281e+05
    1.1535993218e-01    1.0121512500e+05
    1.1536988616e-01    1.0121512500e+05
    1.1537984759e-01    1.0121511719e+05
    1.1538980156e-01    1.0121510156e+05
    1.1539975554e-01    1.0121510156e+05
    1.1540971696e-01    1.0121510156e+05
    1.1541998386e-01    1.0121509375e+05
    1.1542993784e-01    1.0121509375e+05
    1.1543989927e-01    1.0121508594e+05
    1.1544985324e-01    1.0121508594e+05
    1.1545981467e-01    1.0121508594e+05
    1.1546976864e-01    1.0121508594e+05
    1.1547972262e-01    1.0121508594e+05
    1.1548999697e-01    1.0121507031e+05
    1.1549995095e-01    1.0121507031e+05
    1.1550990492e-01    1.0121506250e+05
    1.1551986635e-01    1.0121506250e+05
    1.1552982032e-01    1.0121506250e+05
    1.1553978175e-01    1.0121505469e+05
    1.1554973572e-01    1.0121503906e+05
    1.1555968970e-01    1.0121503906e+05
    1.1556996405e-01    1.0121503906e+05
    1.1557991803e-01    1.0121503906e+05
    1.1558987200e-01    1.0121503125e+05
    1.1559983343e-01    1.0121503125e+05
    1.1560978740e-01    1.0121502344e+05
    1.1561974883e-01    1.0121502344e+05
    1.1562970281e-01    1.0121502344e+05
    1.1563996971e-01    1.0121502344e+05
    1.1564993113e-01    1.0121502344e+05
    1.1565988511e-01    1.0121500781e+05
    1.1566983908e-01    1.0121500781e+05
    1.1567980051e-01    1.0121500781e+05
    1.1568975449e-01    1.0121500000e+05
    1.1569971591e-01    1.0121500000e+05
    1.1570998281e-01    1.0121499219e+05
    1.1571993679e-01    1.0121499219e+05
    1.1572989821e-01    1.0121497656e+05
    1.1573985219e-01    1.0121497656e+05
    1.1574980617e-01    1.0121497656e+05
    1.1575976759e-01    1.0121496875e+05
    1.1576972157e-01    1.0121496875e+05
    1.1577998847e-01    1.0121496094e+05
    1.1578994989e-01    1.0121496094e+05
    1.1579990387e-01    1.0121496094e+05
    1.1580986530e-01    1.0121496094e+05
    1.1581981927e-01    1.0121494531e+05
    1.1582977325e-01    1.0121494531e+05
    1.1583973467e-01    1.0121493750e+05
    1.1584968865e-01    1.0121493750e+05
    1.1585995555e-01    1.0121492969e+05
    1.1586991698e-01    1.0121492969e+05
    1.1587987095e-01    1.0121491406e+05
    1.1588983238e-01    1.0121491406e+05
    1.1589978635e-01    1.0121491406e+05
    1.1590974033e-01    1.0121491406e+05
    1.1591970176e-01    1.0121490625e+05
    1.1592996866e-01    1.0121490625e+05
    1.1593992263e-01    1.0121490625e+05
    1.1594988406e-01    1.0121489844e+05
    1.1595983803e-01    1.0121489844e+05
    1.1596979946e-01    1.0121489844e+05
    1.1597975343e-01    1.0121488281e+05
    1.1598970741e-01    1.0121488281e+05
    1.1599998176e-01    1.0121487500e+05
    1.1600993574e-01    1.0121486719e+05
    1.1601988971e-01    1.0121486719e+05
    1.1602985114e-01    1.0121486719e+05
    1.1603980511e-01    1.0121485156e+05
    1.1604976654e-01    1.0121485156e+05
    1.1605972052e-01    1.0121485156e+05
    1.1606998742e-01    1.0121485156e+05
    1.1607994884e-01    1.0121485156e+05
    1.1608990282e-01    1.0121485156e+05
    1.1609985679e-01    1.0121485156e+05
    1.1610981822e-01    1.0121484375e+05
    1.1611977220e-01    1.0121484375e+05
    1.1612973362e-01    1.0121483594e+05
    1.1614000052e-01    1.0121483594e+05
    1.1614995450e-01    1.0121482031e+05
    1.1615991592e-01    1.0121481250e+05
    1.1616986990e-01    1.0121480469e+05
    1.1617982388e-01    1.0121478906e+05
    1.1618978530e-01    1.0121478906e+05
    1.1619973928e-01    1.0121478906e+05
    1.1620970070e-01    1.0121478906e+05
    1.1621996760e-01    1.0121478906e+05
    1.1622992158e-01    1.0121478125e+05
    1.1623988301e-01    1.0121478125e+05
    1.1624983698e-01    1.0121478125e+05
    1.1625979096e-01    1.0121478125e+05
    1.1626975238e-01    1.0121478125e+05
    1.1627970636e-01    1.0121477344e+05
    1.1628997326e-01    1.0121477344e+05
    1.1629993469e-01    1.0121477344e+05
    1.1630988866e-01    1.0121475781e+05
    1.1631985009e-01    1.0121475000e+05
    1.1632980406e-01    1.0121474219e+05
    1.1633975804e-01    1.0121472656e+05
    1.1634971946e-01    1.0121472656e+05
    1.1635998636e-01    1.0121472656e+05
    1.1636994034e-01    1.0121472656e+05
    1.1637990177e-01    1.0121472656e+05
    1.1638985574e-01    1.0121472656e+05
    1.1639981717e-01    1.0121472656e+05
    1.1640977114e-01    1.0121472656e+05
    1.1641972512e-01    1.0121472656e+05
    1.1642999947e-01    1.0121472656e+05
    1.1643995345e-01    1.0121472656e+05
    1.1644990742e-01    1.0121472656e+05
    1.1645986885e-01    1.0121471875e+05
    1.1646982282e-01    1.0121471094e+05
    1.1647978425e-01    1.0121469531e+05
    1.1648973823e-01    1.0121468750e+05
    1.1649969220e-01    1.0121467969e+05
    1.1650996655e-01    1.0121466406e+05
    1.1651992053e-01    1.0121466406e+05
    1.1652987450e-01    1.0121466406e+05
    1.1653983593e-01    1.0121466406e+05
    1.1654978991e-01    1.0121466406e+05
    1.1655975133e-01    1.0121466406e+05
    1.1656970531e-01    1.0121466406e+05
    1.1657997221e-01    1.0121465625e+05
    1.1658993363e-01    1.0121464844e+05
    1.1659988761e-01    1.0121464844e+05
    1.1660984159e-01    1.0121463281e+05
    1.1661980301e-01    1.0121462500e+05
    1.1662975699e-01    1.0121462500e+05
    1.1663971841e-01    1.0121461719e+05
    1.1664998531e-01    1.0121461719e+05
    1.1665993929e-01    1.0121462500e+05
    1.1666990072e-01    1.0121462500e+05
    1.1667985469e-01    1.0121462500e+05
    1.1668980867e-01    1.0121463281e+05
    1.1669977009e-01    1.0121463281e+05
    1.1670972407e-01    1.0121462500e+05
    1.1671999097e-01    1.0121462500e+05
    1.1672995239e-01    1.0121461719e+05
    1.1673990637e-01    1.0121460156e+05
    1.1674986780e-01    1.0121460156e+05
    1.1675982177e-01    1.0121459375e+05
    1.1676978320e-01    1.0121458594e+05
    1.1677973717e-01    1.0121458594e+05
    1.1678969115e-01    1.0121458594e+05
    1.1679995805e-01    1.0121458594e+05
    1.1680991948e-01    1.0121457031e+05
    1.1681987345e-01    1.0121456250e+05
    1.1682983488e-01    1.0121456250e+05
    1.1683978885e-01    1.0121455469e+05
    1.1684975028e-01    1.0121455469e+05
    1.1685970426e-01    1.0121455469e+05
    1.1686997116e-01    1.0121453906e+05
    1.1687992513e-01    1.0121453906e+05
    1.1688988656e-01    1.0121453906e+05
    1.1689984053e-01    1.0121453906e+05
    1.1690980196e-01    1.0121453906e+05
    1.1691975594e-01    1.0121453906e+05
    1.1692971736e-01    1.0121453125e+05
    1.1693998426e-01    1.0121453125e+05
    1.1694993824e-01    1.0121452344e+05
    1.1695989966e-01    1.0121452344e+05
    1.1696985364e-01    1.0121452344e+05
    1.1697980762e-01    1.0121450781e+05
    1.1698976904e-01    1.0121450000e+05
    1.1699972302e-01    1.0121450000e+05
    1.1700998992e-01    1.0121449219e+05
    1.1701995134e-01    1.0121449219e+05
    1.1702990532e-01    1.0121449219e+05
    1.1703986675e-01    1.0121447656e+05
    1.1704982072e-01    1.0121447656e+05
    1.1705977470e-01    1.0121447656e+05
    1.1706973612e-01    1.0121446875e+05
    1.1707969010e-01    1.0121446875e+05
    1.1708995700e-01    1.0121446875e+05
    1.1709991843e-01    1.0121446875e+05
    1.1710987240e-01    1.0121446094e+05
    1.1711983383e-01    1.0121446094e+05
    1.1712978780e-01    1.0121446094e+05
    1.1713974178e-01    1.0121446094e+05
    1.1714970320e-01    1.0121446094e+05
    1.1715997010e-01    1.0121444531e+05
    1.1716992408e-01    1.0121444531e+05
    1.1717988551e-01    1.0121443750e+05
    1.1718983948e-01    1.0121443750e+05
    1.1719980091e-01    1.0121442969e+05
    1.1720975488e-01    1.0121441406e+05
    1.1721970886e-01    1.0121441406e+05
    1.1722998321e-01    1.0121441406e+05
    1.1723993719e-01    1.0121440625e+05
    1.1724989116e-01    1.0121440625e+05
    1.1725985259e-01    1.0121440625e+05
    1.1726980656e-01    1.0121439844e+05
    1.1727976799e-01    1.0121439844e+05
    1.1728972197e-01    1.0121439844e+05
    1.1729998887e-01    1.0121439844e+05
    1.1730995029e-01    1.0121439844e+05
    1.1731990427e-01    1.0121439844e+05
    1.1732985824e-01    1.0121438281e+05
    1.1733981967e-01    1.0121438281e+05
    1.1734977365e-01    1.0121437500e+05
    1.1735973507e-01    1.0121436719e+05
    1.1737000197e-01    1.0121436719e+05
    1.1737995595e-01    1.0121435156e+05
    1.1738991737e-01    1.0121435156e+05
    1.1739987135e-01    1.0121435156e+05
    1.1740982533e-01    1.0121435156e+05
    1.1741978675e-01    1.0121434375e+05
    1.1742974073e-01    1.0121434375e+05
    1.1743970215e-01    1.0121434375e+05
    1.1744996905e-01    1.0121433594e+05
    1.1745992303e-01    1.0121433594e+05
    1.1746988446e-01    1.0121433594e+05
    1.1747983843e-01    1.0121433594e+05
    1.1748979241e-01    1.0121433594e+05
    1.1749975383e-01    1.0121432031e+05
    1.1750970781e-01    1.0121432031e+05
    1.1751997471e-01    1.0121432031e+05
    1.1752993613e-01    1.0121431250e+05
    1.1753989011e-01    1.0121431250e+05
    1.1754985154e-01    1.0121430469e+05
    1.1755980551e-01    1.0121430469e+05
    1.1756975949e-01    1.0121428906e+05
    1.1757972091e-01    1.0121428906e+05
    1.1758998781e-01    1.0121428906e+05
    1.1759994179e-01    1.0121428906e+05
    1.1760990322e-01    1.0121428125e+05
    1.1761985719e-01    1.0121428125e+05
    1.1762981862e-01    1.0121427344e+05
    1.1763977259e-01    1.0121427344e+05
    1.1764972657e-01    1.0121427344e+05
    1.1766000092e-01    1.0121427344e+05
    1.1766995490e-01    1.0121425781e+05
    1.1767990887e-01    1.0121425781e+05
    1.1768987030e-01    1.0121425000e+05
    1.1769982427e-01    1.0121425000e+05
    1.1770978570e-01    1.0121424219e+05
    1.1771973968e-01    1.0121424219e+05
    1.1772969365e-01    1.0121422656e+05
    1.1773996800e-01    1.0121422656e+05
    1.1774992198e-01    1.0121422656e+05
    1.1775987595e-01    1.0121422656e+05
    1.1776983738e-01    1.0121422656e+05
    1.1777979136e-01    1.0121421875e+05
    1.1778975278e-01    1.0121421875e+05
    1.1779970676e-01    1.0121421094e+05
    1.1780997366e-01    1.0121421094e+05
    1.1781993508e-01    1.0121421094e+05
    1.1782988906e-01    1.0121421094e+05
    1.1783984303e-01    1.0121419531e+05
    1.1784980446e-01    1.0121419531e+05
    1.1785975844e-01    1.0121418750e+05
    1.1786971986e-01    1.0121418750e+05
    1.1787998676e-01    1.0121418750e+05
    1.1788994074e-01    1.0121417969e+05
    1.1789990216e-01    1.0121417969e+05
    1.1790985614e-01    1.0121416406e+05
    1.1791981012e-01    1.0121416406e+05
    1.1792977154e-01    1.0121416406e+05
    1.1793972552e-01    1.0121416406e+05
    1.1794999242e-01    1.0121415625e+05
    1.1795995384e-01    1.0121415625e+05
    1.1796990782e-01    1.0121414844e+05
    1.1797986925e-01    1.0121414844e+05
    1.1798982322e-01    1.0121414844e+05
    1.1799977720e-01    1.0121414844e+05
    1.1800973862e-01    1.0121413281e+05
    1.1801969260e-01    1.0121413281e+05
    1.1802995950e-01    1.0121412500e+05
    1.1803992093e-01    1.0121412500e+05
    1.1804987490e-01    1.0121411719e+05
    1.1805983633e-01    1.0121411719e+05
    1.1806979030e-01    1.0121411719e+05
    1.1807974428e-01    1.0121410156e+05
    1.1808970571e-01    1.0121410156e+05
    1.1809997261e-01    1.0121410156e+05
    1.1810992658e-01    1.0121410156e+05
    1.1811988801e-01    1.0121410156e+05
    1.1812984198e-01    1.0121409375e+05
    1.1813980341e-01    1.0121409375e+05
    1.1814975739e-01    1.0121408594e+05
    1.1815971136e-01    1.0121408594e+05
    1.1816998571e-01    1.0121408594e+05
    1.1817993969e-01    1.0121408594e+05
    1.1818989366e-01    1.0121407031e+05
    1.1819985509e-01    1.0121407031e+05
    1.1820980906e-01    1.0121406250e+05
    1.1821977049e-01    1.0121406250e+05
    1.1822972447e-01    1.0121405469e+05
    1.1823999137e-01    1.0121405469e+05
    1.1824995279e-01    1.0121403906e+05
    1.1825990677e-01    1.0121403906e+05
    1.1826986820e-01    1.0121403906e+05
    1.1827982217e-01    1.0121403906e+05
    1.1828977615e-01    1.0121403906e+05
    1.1829973757e-01    1.0121403125e+05
    1.1830969155e-01    1.0121403125e+05
    1.1831995845e-01    1.0121403125e+05
    1.1832991987e-01    1.0121402344e+05
    1.1833987385e-01    1.0121402344e+05
    1.1834983528e-01    1.0121402344e+05
    1.1835978925e-01    1.0121400781e+05
    1.1836974323e-01    1.0121400781e+05
    1.1837970465e-01    1.0121400781e+05
    1.1838997155e-01    1.0121400000e+05
    1.1839992553e-01    1.0121400000e+05
    1.1840988696e-01    1.0121399219e+05
    1.1841984093e-01    1.0121399219e+05
    1.1842980236e-01    1.0121399219e+05
    1.1843975633e-01    1.0121397656e+05
    1.1844971031e-01    1.0121397656e+05
    1.1845998466e-01    1.0121397656e+05
    1.1846993864e-01    1.0121397656e+05
    1.1847989261e-01    1.0121396875e+05
    1.1848985404e-01    1.0121396875e+05
    1.1849980801e-01    1.0121396094e+05
    1.1850976944e-01    1.0121396094e+05
    1.1851972342e-01    1.0121396094e+05
    1.1852999032e-01    1.0121396094e+05
    1.1853995174e-01    1.0121394531e+05
    1.1854990572e-01    1.0121394531e+05
    1.1855985969e-01    1.0121393750e+05
    1.1856982112e-01    1.0121393750e+05
    1.1857977509e-01    1.0121392969e+05
    1.1858973652e-01    1.0121392969e+05
    1.1859969050e-01    1.0121392969e+05
    1.1860995740e-01    1.0121391406e+05
    1.1861991882e-01    1.0121391406e+05
    1.1862987280e-01    1.0121391406e+05
    1.1863982677e-01    1.0121391406e+05
    1.1864978820e-01    1.0121391406e+05
    1.1865974218e-01    1.0121390625e+05
    1.1866970360e-01    1.0121390625e+05
    1.1867997050e-01    1.0121389844e+05
    1.1868992448e-01    1.0121389844e+05
    1.1869988590e-01    1.0121389844e+05
    1.1870983988e-01    1.0121389844e+05
    1.1871979386e-01    1.0121388281e+05
    1.1872975528e-01    1.0121388281e+05
    1.1873970926e-01    1.0121388281e+05
    1.1874997616e-01    1.0121387500e+05
    1.1875993758e-01    1.0121387500e+05
    1.1876989156e-01    1.0121386719e+05
    1.1877985299e-01    1.0121386719e+05
    1.1878980696e-01    1.0121385156e+05
    1.1879976839e-01    1.0121385156e+05
    1.1880972236e-01    1.0121385156e+05
    1.1881998926e-01    1.0121385156e+05
    1.1882995069e-01    1.0121384375e+05
    1.1883990467e-01    1.0121384375e+05
    1.1884985864e-01    1.0121384375e+05
    1.1885982007e-01    1.0121383594e+05
    1.1886977404e-01    1.0121383594e+05
    1.1887973547e-01    1.0121383594e+05
    1.1888968945e-01    1.0121383594e+05
    1.1889995635e-01    1.0121383594e+05
    1.1890991777e-01    1.0121382031e+05
    1.1891987175e-01    1.0121382031e+05
    1.1892982572e-01    1.0121381250e+05
    1.1893978715e-01    1.0121381250e+05
    1.1894974113e-01    1.0121380469e+05
    1.1895970255e-01    1.0121380469e+05
    1.1896996945e-01    1.0121378906e+05
    1.1897992343e-01    1.0121378906e+05
    1.1898988485e-01    1.0121378906e+05
    1.1899983883e-01    1.0121378906e+05
    1.1900979280e-01    1.0121378125e+05
    1.1901975423e-01    1.0121378125e+05
    1.1902970821e-01    1.0121378125e+05
    1.1903997511e-01    1.0121377344e+05
    1.1904993653e-01    1.0121377344e+05
    1.1905989051e-01    1.0121377344e+05
    1.1906985193e-01    1.0121377344e+05
    1.1907980591e-01    1.0121377344e+05
    1.1908976734e-01    1.0121375781e+05
    1.1909972131e-01    1.0121375781e+05
    1.1910998821e-01    1.0121375000e+05
    1.1911994964e-01    1.0121375000e+05
    1.1912990361e-01    1.0121374219e+05
    1.1913985759e-01    1.0121374219e+05
    1.1914981902e-01    1.0121372656e+05
    1.1915977299e-01    1.0121372656e+05
    1.1916973442e-01    1.0121372656e+05
    1.1918000132e-01    1.0121372656e+05
    1.1918995529e-01    1.0121371875e+05
    1.1919991672e-01    1.0121371875e+05
    1.1920987070e-01    1.0121371094e+05
    1.1921982467e-01    1.0121371094e+05
    1.1922978610e-01    1.0121371094e+05
    1.1923974007e-01    1.0121371094e+05
    1.1924970150e-01    1.0121371094e+05
    1.1925996840e-01    1.0121369531e+05
    1.1926992238e-01    1.0121369531e+05
    1.1927988380e-01    1.0121368750e+05
    1.1928983778e-01    1.0121368750e+05
    1.1929979920e-01    1.0121367969e+05
    1.1930975318e-01    1.0121367969e+05
    1.1931970716e-01    1.0121367969e+05
    1.1932998151e-01    1.0121366406e+05
    1.1933993548e-01    1.0121366406e+05
    1.1934988946e-01    1.0121366406e+05
    1.1935985088e-01    1.0121366406e+05
    1.1936980486e-01    1.0121366406e+05
    1.1937976629e-01    1.0121366406e+05
    1.1938972026e-01    1.0121365625e+05
    1.1939998716e-01    1.0121365625e+05
    1.1940994859e-01    1.0121364844e+05
    1.1941990256e-01    1.0121364844e+05
    1.1942985654e-01    1.0121364844e+05
    1.1943981797e-01    1.0121364844e+05
    1.1944977194e-01    1.0121363281e+05
    1.1945973337e-01    1.0121363281e+05
    1.1947000027e-01    1.0121363281e+05
    1.1947995424e-01    1.0121362500e+05
    1.1948991567e-01    1.0121362500e+05
    1.1949986964e-01    1.0121361719e+05
    1.1950982362e-01    1.0121361719e+05
    1.1951978505e-01    1.0121360156e+05
    1.1952973902e-01    1.0121360156e+05
    1.1953970045e-01    1.0121360156e+05
    1.1954996735e-01    1.0121360156e+05
    1.1955992132e-01    1.0121360156e+05
    1.1956988275e-01    1.0121359375e+05
    1.1957983673e-01    1.0121359375e+05
    1.1958979815e-01    1.0121358594e+05
    1.1959975213e-01    1.0121358594e+05
    1.1960970610e-01    1.0121358594e+05
    1.1961998045e-01    1.0121358594e+05
    1.1962993443e-01    1.0121357031e+05
    1.1963988841e-01    1.0121357031e+05
    1.1964984983e-01    1.0121356250e+05
    1.1965980381e-01    1.0121356250e+05
    1.1966976523e-01    1.0121356250e+05
    1.1967971921e-01    1.0121355469e+05
    1.1968998611e-01    1.0121355469e+05
    1.1969994754e-01    1.0121353906e+05
    1.1970990151e-01    1.0121353906e+05
    1.1971985549e-01    1.0121353906e+05
    1.1972981691e-01    1.0121353906e+05
    1.1973977089e-01    1.0121353906e+05
    1.1974973232e-01    1.0121353125e+05
    1.1975999922e-01    1.0121353125e+05
    1.1976995319e-01    1.0121353125e+05
    1.1977991462e-01    1.0121352344e+05
    1.1978986859e-01    1.0121352344e+05
    1.1979983002e-01    1.0121352344e+05
    1.1980978400e-01    1.0121352344e+05
    1.1981973797e-01    1.0121352344e+05
    1.1982969940e-01    1.0121352344e+05
    1.1983996630e-01    1.0121350781e+05
    1.1984992027e-01    1.0121350781e+05
    1.1985988170e-01    1.0121350000e+05
    1.1986983567e-01    1.0121350000e+05
    1.1987979710e-01    1.0121349219e+05
    1.1988975108e-01    1.0121347656e+05
    1.1989970505e-01    1.0121347656e+05
    1.1990997940e-01    1.0121347656e+05
    1.1991993338e-01    1.0121346875e+05
    1.1992988735e-01    1.0121346094e+05
    1.1993984878e-01    1.0121346094e+05
    1.1994980276e-01    1.0121346094e+05
    1.1995976418e-01    1.0121346094e+05
    1.1996971816e-01    1.0121346094e+05
    1.1997998506e-01    1.0121346094e+05
    1.1998994648e-01    1.0121346094e+05
    1.1999990046e-01    1.0121346094e+05
endcurve
