Curveplot
LS-DYNA keyword deck by LS-PrePost                          
Time
Pressure
Defined Connection
Pressure @ 9 #pts=12001
* Minval=     7.7983546875e+04 at time=         0.0131397797
* Maxval=     2.6183635938e+05 at time=         0.0051699630
    0.0000000000e+00    1.0120000000e+05
    9.9485323517e-06    1.0120000000e+05
    1.9945611712e-05    1.0120000000e+05
    2.9979442843e-05    1.0120000000e+05
    3.9977581764e-05    1.0120000000e+05
    4.9983951612e-05    1.0120000000e+05
    5.9990270529e-05    1.0120000000e+05
    6.9934983912e-05    1.0120000000e+05
    7.9969446233e-05    1.0120000000e+05
    8.9974186267e-05    1.0120000000e+05
    9.9934797618e-05    1.0120000000e+05
    1.0997685604e-04    1.0120000000e+05
    1.1994514352e-04    1.0120000000e+05
    1.2997510203e-04    1.0120000000e+05
    1.3998290524e-04    1.0120000000e+05
    1.4995656966e-04    1.0120000000e+05
    1.5996450384e-04    1.0120000000e+05
    1.6999947547e-04    1.0120000000e+05
    1.7997041869e-04    1.0120000000e+05
    1.8994954007e-04    1.0120000000e+05
    1.9992935995e-04    1.0120000000e+05
    2.0998885157e-04    1.0120000000e+05
    2.1994608687e-04    1.0120000000e+05
    2.2996898042e-04    1.0120000000e+05
    2.3996196978e-04    1.0120000000e+05
    2.4991590180e-04    1.0120000000e+05
    2.5991559960e-04    1.0120000000e+05
    2.6995153166e-04    1.0120000000e+05
    2.7991249226e-04    1.0120000000e+05
    2.8998305788e-04    1.0120000000e+05
    2.9996826197e-04    1.0120000000e+05
    3.0996266287e-04    1.0120000000e+05
    3.1996471807e-04    1.0120000000e+05
    3.2997241942e-04    1.0120000000e+05
    3.3998367144e-04    1.0120000000e+05
    3.4999704803e-04    1.0120000000e+05
    3.5990501055e-04    1.0120000000e+05
    3.6991396337e-04    1.0120000000e+05
    3.7992166472e-04    1.0120000000e+05
    3.8992456393e-04    1.0120000000e+05
    3.9992079837e-04    1.0120000000e+05
    4.0990687557e-04    1.0120000000e+05
    4.1999437963e-04    1.0120000000e+05
    4.2996162665e-04    1.0120000000e+05
    4.3991528219e-04    1.0120000000e+05
    4.4996821089e-04    1.0120000000e+05
    4.5988807688e-04    1.0120000000e+05
    4.6990765259e-04    1.0120000000e+05
    4.7990804887e-04    1.0120000000e+05
    4.8988760682e-04    1.0120000000e+05
    4.9996492453e-04    1.0120000000e+05
    5.0989812007e-04    1.0120000000e+05
    5.1992532099e-04    1.0120000000e+05
    5.2992830751e-04    1.0120000000e+05
    5.3990300512e-04    1.0120000000e+05
    5.4997380357e-04    1.0120000000e+05
    5.5988691747e-04    1.0120000000e+05
    5.6989450241e-04    1.0120000000e+05
    5.7999562705e-04    1.0120000000e+05
    5.8993406128e-04    1.0120000000e+05
    5.9996667551e-04    1.0120000000e+05
    6.0996110551e-04    1.0120000000e+05
    6.1991513940e-04    1.0120000000e+05
    6.2996288761e-04    1.0120000000e+05
    6.3996255631e-04    1.0120000000e+05
    6.4992287662e-04    1.0120000000e+05
    6.5997621277e-04    1.0120000000e+05
    6.6998257535e-04    1.0120000000e+05
    6.7993928678e-04    1.0120000000e+05
    6.8998814095e-04    1.0120000000e+05
    6.9998507388e-04    1.0120000000e+05
    7.0992740802e-04    1.0120000000e+05
    7.1995734470e-04    1.0120000000e+05
    7.2993349750e-04    1.0120000000e+05
    7.3984981282e-04    1.0120000000e+05
    7.4985576794e-04    1.0120000000e+05
    7.5995275984e-04    1.0120000000e+05
    7.6998694567e-04    1.0120000000e+05
    7.7995553147e-04    1.0120000000e+05
    7.8985578148e-04    1.0120000000e+05
    7.9984392505e-04    1.0120000000e+05
    8.0992118455e-04    1.0120000000e+05
    8.1992236665e-04    1.0120000000e+05
    8.2985300105e-04    1.0120000000e+05
    8.3987071412e-04    1.0120000000e+05
    8.4997655358e-04    1.0120000000e+05
    8.5983617464e-04    1.0120000000e+05
    8.6994987214e-04    1.0120000000e+05
    8.7998178788e-04    1.0120000000e+05
    8.8992866222e-04    1.0120000000e+05
    8.9996086899e-04    1.0120000000e+05
    9.0990436729e-04    1.0120000000e+05
    9.1993244132e-04    1.0120000000e+05
    9.2986808158e-04    1.0120000000e+05
    9.3988742447e-04    1.0120000000e+05
    9.4998563873e-04    1.0120000000e+05
    9.5999205951e-04    1.0120000000e+05
    9.6989894519e-04    1.0120000000e+05
    9.7988778725e-04    1.0120000000e+05
    9.8995969165e-04    1.0120000000e+05
    9.9992682226e-04    1.0120000000e+05
    1.0099763749e-03    1.0120000000e+05
    1.0199173121e-03    1.0120000000e+05
    1.0299396235e-03    1.0120000000e+05
    1.0398492450e-03    1.0120000000e+05
    1.0498394258e-03    1.0120000000e+05
    1.0599109810e-03    1.0120000000e+05
    1.0698655387e-03    1.0120000000e+05
    1.0799004231e-03    1.0120000000e+05
    1.0898138862e-03    1.0120000000e+05
    1.0998069774e-03    1.0120000000e+05
    1.1098807445e-03    1.0120000000e+05
    1.1198283173e-03    1.0120000000e+05
    1.1298556346e-03    1.0120000000e+05
    1.1399633950e-03    1.0120000000e+05
    1.1499401880e-03    1.0120000000e+05
    1.1599966092e-03    1.0120000000e+05
    1.1699177558e-03    1.0120000000e+05
    1.1799170170e-03    1.0120000000e+05
    1.1899961391e-03    1.0120000000e+05
    1.1999345152e-03    1.0120000000e+05
    1.2099515880e-03    1.0120000000e+05
    1.2198233744e-03    1.0120000000e+05
    1.2299991213e-03    1.0120000000e+05
    1.2397994287e-03    1.0120000000e+05
    1.2499071890e-03    1.0120000000e+05
    1.2598626781e-03    1.0120000000e+05
    1.2698963983e-03    1.0120000000e+05
    1.2797685340e-03    1.0120000000e+05
    1.2899526628e-03    1.0120000000e+05
    1.2999788160e-03    1.0120000000e+05
    1.3098429190e-03    1.0120000000e+05
    1.3197851367e-03    1.0120000000e+05
    1.3298104750e-03    1.0120000000e+05
    1.3399177697e-03    1.0120000000e+05
    1.3498580083e-03    1.0120000000e+05
    1.3598751975e-03    1.0120000000e+05
    1.3699728297e-03    1.0120000000e+05
    1.3798949076e-03    1.0120000000e+05
    1.3898949837e-03    1.0120000000e+05
    1.3999745715e-03    1.0120000000e+05
    1.4098731335e-03    1.0120000000e+05
    1.4198492281e-03    1.0120000000e+05
    1.4299042523e-03    1.0120000000e+05
    1.4397720806e-03    1.0120000000e+05
    1.4499868266e-03    1.0120000000e+05
    1.4597401023e-03    1.0120000000e+05
    1.4698439045e-03    1.0120000000e+05
    1.4797518961e-03    1.0120000000e+05
    1.4897387009e-03    1.0120000000e+05
    1.4998049010e-03    1.0120000000e+05
    1.5099520097e-03    1.0120000000e+05
    1.5198962064e-03    1.0120000000e+05
    1.5299195657e-03    1.0120000000e+05
    1.5397338429e-03    1.0120000000e+05
    1.5499173896e-03    1.0120000000e+05
    1.5598897589e-03    1.0120000000e+05
    1.5699423384e-03    1.0120000000e+05
    1.5797774540e-03    1.0120000000e+05
    1.5899919672e-03    1.0120000000e+05
    1.5999871539e-03    1.0120000000e+05
    1.6097566113e-03    1.0120000000e+05
    1.6199125675e-03    1.0120000000e+05
    1.6298411647e-03    1.0120000000e+05
    1.6398502048e-03    1.0120000000e+05
    1.6499409685e-03    1.0120000000e+05
    1.6597959911e-03    1.0120000000e+05
    1.6697307583e-03    1.0120000000e+05
    1.6797431745e-03    1.0120000000e+05
    1.6898382455e-03    1.0120000000e+05
    1.6996915219e-03    1.0120000000e+05
    1.7099578399e-03    1.0120000000e+05
    1.7199764261e-03    1.0120000000e+05
    1.7297405284e-03    1.0120000000e+05
    1.7399252392e-03    1.0120000000e+05
    1.7498532543e-03    1.0120000000e+05
    1.7598640407e-03    1.0120000000e+05
    1.7699593445e-03    1.0120000000e+05
    1.7797882902e-03    1.0120000000e+05
    1.7896991922e-03    1.0120000000e+05
    1.7996936804e-03    1.0120000000e+05
    1.8097733846e-03    1.0120000000e+05
    1.8199401675e-03    1.0120000000e+05
    1.8298281357e-03    1.0120000000e+05
    1.8398003886e-03    1.0120000000e+05
    1.8498535501e-03    1.0120000000e+05
    1.8599996110e-03    1.0120000000e+05
    1.8698550994e-03    1.0120000000e+05
    1.8797953380e-03    1.0120000000e+05
    1.8898225389e-03    1.0120000000e+05
    1.8999384483e-03    1.0120000000e+05
    1.9097508630e-03    1.0120000000e+05
    1.9196488429e-03    1.0120000000e+05
    1.9296344835e-03    1.0120000000e+05
    1.9397096476e-03    1.0120000000e+05
    1.9498761976e-03    1.0120000000e+05
    1.9597241189e-03    1.0120000000e+05
    1.9696603995e-03    1.0120000000e+05
    1.9796825945e-03    1.0120000000e+05
    1.9898014143e-03    1.0120000000e+05
    1.9995870534e-03    1.0120000000e+05
    2.0098928362e-03    1.0120000000e+05
    2.0198517013e-03    1.0120000000e+05
    2.0298734307e-03    1.0120000000e+05
    2.0399475470e-03    1.0120000000e+05
    2.0496179350e-03    1.0120000000e+05
    2.0597658586e-03    1.0120000000e+05
    2.0699223969e-03    1.0120000000e+05
    2.0796637982e-03    1.0120000000e+05
    2.0898901857e-03    1.0120000000e+05
    2.0996585954e-03    1.0120000000e+05
    2.1098782308e-03    1.0120000000e+05
    2.1196580492e-03    1.0120000000e+05
    2.1298893262e-03    1.0120000000e+05
    2.1396360826e-03    1.0120000000e+05
    2.1498412825e-03    1.0120000000e+05
    2.1596204024e-03    1.0120000000e+05
    2.1698244382e-03    1.0120000000e+05
    2.1795756184e-03    1.0120000000e+05
    2.1897717379e-03    1.0120000000e+05
    2.1999597084e-03    1.0120000000e+05
    2.2096924949e-03    1.0120000000e+05
    2.2198879160e-03    1.0120000000e+05
    2.2296304815e-03    1.0120000000e+05
    2.2399055306e-03    1.0120000000e+05
    2.2496536840e-03    1.0120000000e+05
    2.2598369978e-03    1.0120000000e+05
    2.2699865513e-03    1.0120000000e+05
    2.2797670681e-03    1.0120000000e+05
    2.2899804171e-03    1.0120000000e+05
    2.2998028435e-03    1.0120000000e+05
    2.3096117657e-03    1.0120000000e+05
    2.3199098650e-03    1.0120000000e+05
    2.3297860753e-03    1.0120000000e+05
    2.3396664765e-03    1.0120000000e+05
    2.3495727219e-03    1.0120000000e+05
    2.3599320557e-03    1.0120000000e+05
    2.3698583245e-03    1.0120000000e+05
    2.3797976319e-03    1.0120000000e+05
    2.3897401989e-03    1.0120000000e+05
    2.3996820673e-03    1.0120000000e+05
    2.4096036796e-03    1.0120000000e+05
    2.4199469481e-03    1.0120000000e+05
    2.4298336357e-03    1.0120000000e+05
    2.4396786466e-03    1.0120000000e+05
    2.4499427527e-03    1.0120000000e+05
    2.4597146548e-03    1.0120000000e+05
    2.4698802736e-03    1.0120000000e+05
    2.4799762759e-03    1.0120000000e+05
    2.4899949785e-03    1.0120000000e+05
    2.4999384768e-03    1.0120000000e+05
    2.5098072365e-03    1.0120000000e+05
    2.5195998605e-03    1.0120000000e+05
    2.5297428947e-03    1.0120000000e+05
    2.5398090947e-03    1.0120000000e+05
    2.5497993920e-03    1.0120000000e+05
    2.5597144850e-03    1.0120000000e+05
    2.5699632242e-03    1.0120000000e+05
    2.5797276758e-03    1.0120000000e+05
    2.5898222812e-03    1.0120000000e+05
    2.5998398196e-03    1.0120000000e+05
    2.6097809896e-03    1.0120000000e+05
    2.6196462568e-03    1.0120000000e+05
    2.6298279408e-03    1.0120000000e+05
    2.6399299968e-03    1.0120000000e+05
    2.6499538217e-03    1.0120000000e+05
    2.6599003468e-03    1.0120000000e+05
    2.6697702706e-03    1.0120000000e+05
    2.6799398474e-03    1.0120000000e+05
    2.6896558702e-03    1.0120000000e+05
    2.6996675879e-03    1.0120000000e+05
    2.7099666186e-03    1.0120000000e+05
    2.7198181488e-03    1.0120000000e+05
    2.7299530338e-03    1.0120000000e+05
    2.7396478690e-03    1.0120000000e+05
    2.7499764692e-03    1.0120000000e+05
    2.7598666493e-03    1.0120000000e+05
    2.7696762700e-03    1.0120000000e+05
    2.7797524817e-03    1.0120000000e+05
    2.7897446416e-03    1.0120000000e+05
    2.7999929152e-03    1.0120000000e+05
    2.8098153416e-03    1.0120000000e+05
    2.8198899236e-03    1.0120000000e+05
    2.8298764955e-03    1.0120000000e+05
    2.8397759888e-03    1.0120000000e+05
    2.8499143664e-03    1.0120000000e+05
    2.8599614743e-03    1.0120000000e+05
    2.8699168470e-03    1.0120000000e+05
    2.8797821142e-03    1.0120000000e+05
    2.8898706660e-03    1.0120000000e+05
    2.8998635244e-03    1.0120000000e+05
    2.9097609222e-03    1.0120000000e+05
    2.9198681004e-03    1.0120000000e+05
    2.9298744630e-03    1.0120000000e+05
    2.9397804756e-03    1.0120000000e+05
    2.9498822987e-03    1.0120000000e+05
    2.9598779511e-03    1.0120000000e+05
    2.9697674327e-03    1.0120000000e+05
    2.9798373580e-03    1.0120000000e+05
    2.9897950590e-03    1.0120000000e+05
    2.9999201652e-03    1.0120000000e+05
    3.0099267606e-03    1.0120000000e+05
    3.0198143795e-03    1.0120000000e+05
    3.0298524071e-03    1.0120000000e+05
    3.0397642404e-03    1.0120000000e+05
    3.0498120468e-03    1.0120000000e+05
    3.0599841848e-03    1.0120000000e+05
    3.0697588809e-03    1.0120000000e+05
    3.0799007509e-03    1.0120000000e+05
    3.0898908153e-03    1.0120000000e+05
    3.0999714509e-03    1.0120000000e+05
    3.1098893378e-03    1.0120000000e+05
    3.1198782381e-03    1.0120000000e+05
    3.1299234834e-03    1.0120000000e+05
    3.1397826970e-03    1.0120000000e+05
    3.1498975586e-03    1.0120000000e+05
    3.1598007772e-03    1.0120000000e+05
    3.1699130777e-03    1.0120000000e+05
    3.1799909193e-03    1.0120000000e+05
    3.1898093875e-03    1.0120000000e+05
    3.1999475323e-03    1.0120000000e+05
    3.2099606469e-03    1.0120000000e+05
    3.2199975103e-03    1.0120000000e+05
    3.2299957238e-03    1.0120000000e+05
    3.2398826443e-03    1.0120000000e+05
    3.2498822547e-03    1.0120000000e+05
    3.2599582337e-03    1.0120000000e+05
    3.2699499279e-03    1.0120000000e+05
    3.2799944747e-03    1.0120000000e+05
    3.2899063081e-03    1.0120000000e+05
    3.2999233808e-03    1.0120000000e+05
    3.3098831773e-03    1.0120000000e+05
    3.3199142199e-03    1.0120000000e+05
    3.3298868220e-03    1.0120000000e+05
    3.3399225213e-03    1.0120000000e+05
    3.3499663696e-03    1.0120000000e+05
    3.3598393202e-03    1.0120000000e+05
    3.3699464984e-03    1.0120000000e+05
    3.3799984958e-03    1.0120000000e+05
    3.3899340779e-03    1.0120000000e+05
    3.3998445142e-03    1.0120000000e+05
    3.4099190962e-03    1.0120000000e+05
    3.4198737703e-03    1.0120000000e+05
    3.4299511462e-03    1.0120000000e+05
    3.4399526194e-03    1.0120000000e+05
    3.4498586319e-03    1.0120000000e+05
    3.4598479979e-03    1.0120000000e+05
    3.4699465614e-03    1.0120000000e+05
    3.4799140412e-03    1.0120000000e+05
    3.4899776801e-03    1.0120000000e+05
    3.4998855554e-03    1.0120000000e+05
    3.5098863300e-03    1.0120000000e+05
    3.5199327394e-03    1.0120000000e+05
    3.5298557486e-03    1.0120000000e+05
    3.5398430191e-03    1.0120000000e+05
    3.5498777870e-03    1.0120000000e+05
    3.5599730909e-03    1.0120000000e+05
    3.5698993597e-03    1.0120000000e+05
    3.5799113102e-03    1.0120000000e+05
    3.5899395589e-03    1.0120000000e+05
    3.5998183303e-03    1.0120000000e+05
    3.6099611316e-03    1.0120000000e+05
    3.6199307069e-03    1.0120000000e+05
    3.6299412604e-03    1.0120000000e+05
    3.6397809163e-03    1.0120000000e+05
    3.6498939153e-03    1.0120000000e+05
    3.6598062143e-03    1.0120000000e+05
    3.6699986085e-03    1.0120000000e+05
    3.6799884401e-03    1.0120000000e+05
    3.6898076069e-03    1.0120000000e+05
    3.6998952273e-03    1.0120000000e+05
    3.7097735330e-03    1.0120000000e+05
    3.7199405488e-03    1.0120000000e+05
    3.7298977841e-03    1.0120000000e+05
    3.7398808636e-03    1.0120000000e+05
    3.7499342579e-03    1.0120000000e+05
    3.7599643692e-03    1.0120000000e+05
    3.7698603701e-03    1.0120000000e+05
    3.7799740676e-03    1.0120000000e+05
    3.7898919545e-03    1.0120000000e+05
    3.7998750340e-03    1.0120000000e+05
    3.8098320365e-03    1.0120000000e+05
    3.8198735565e-03    1.0120000000e+05
    3.8299148437e-03    1.0120000000e+05
    3.8399621844e-03    1.0120000000e+05
    3.8498691283e-03    1.0120000000e+05
    3.8599602412e-03    1.0120000000e+05
    3.8698834833e-03    1.0120000000e+05
    3.8798451424e-03    1.0120000000e+05
    3.8897763006e-03    1.0120000000e+05
    3.8997959346e-03    1.0120000000e+05
    3.9098095149e-03    1.0120000000e+05
    3.9198365994e-03    1.0120000000e+05
    3.9299228229e-03    1.0120000000e+05
    3.9397682995e-03    1.0120000000e+05
    3.9498871192e-03    1.0120000000e+05
    3.9597898722e-03    1.0120000000e+05
    3.9699557237e-03    1.0120000000e+05
    3.9799059741e-03    1.0120000000e+05
    3.9898687974e-03    1.0120000000e+05
    3.9998539723e-03    1.0120000000e+05
    4.0098638274e-03    1.0120000000e+05
    4.0198811330e-03    1.0120000000e+05
    4.0299161337e-03    1.0120000000e+05
    4.0399711579e-03    1.0120000000e+05
    4.0497900918e-03    1.0120000000e+05
    4.0598632768e-03    1.0120000000e+05
    4.0699518286e-03    1.0120000000e+05
    4.0798024274e-03    1.0120000000e+05
    4.0899058804e-03    1.0120000000e+05
    4.0997685865e-03    1.0120000000e+05
    4.1098822840e-03    1.0120000000e+05
    4.1199987754e-03    1.0120000000e+05
    4.1298693977e-03    1.0120000000e+05
    4.1399872862e-03    1.0120000000e+05
    4.1498583741e-03    1.0120000000e+05
    4.1599757969e-03    1.0120000000e+05
    4.1698464192e-03    1.0120000000e+05
    4.1799638420e-03    1.0120000000e+05
    4.1898330674e-03    1.0120000000e+05
    4.1999490932e-03    1.0120000000e+05
    4.2098173872e-03    1.0120000000e+05
    4.2199306190e-03    1.0120000000e+05
    4.2297965847e-03    1.0120000000e+05
    4.2399065569e-03    1.0120000000e+05
    4.2497701943e-03    1.0120000000e+05
    4.2598815635e-03    1.0120000000e+05
    4.2699906044e-03    1.0120000000e+05
    4.2798602954e-03    1.0120000000e+05
    4.2899828404e-03    1.0120000000e+05
    4.2998571880e-03    1.0120000000e+05
    4.3099881150e-03    1.0120000000e+05
    4.3198834173e-03    1.0120000000e+05
    4.3297833763e-03    1.0120000000e+05
    4.3399338610e-03    1.0120000000e+05
    4.3498477899e-03    1.0120000000e+05
    4.3597719632e-03    1.0120000000e+05
    4.3699475937e-03    1.0120000000e+05
    4.3798820116e-03    1.0120000000e+05
    4.3898317963e-03    1.0120000000e+05
    4.3997853063e-03    1.0120000000e+05
    4.4099939987e-03    1.0120000000e+05
    4.4199679978e-03    1.0120000000e+05
    4.4299531728e-03    1.0120000000e+05
    4.4399392791e-03    1.0120000000e+05
    4.4499323703e-03    1.0120000000e+05
    4.4599412940e-03    1.0120000000e+05
    4.4699553400e-03    1.0120000000e+05
    4.4799689204e-03    1.0120000000e+05
    4.4899987988e-03    1.0120000000e+05
    4.4997911900e-03    1.0120000000e+05
    4.5098336414e-03    1.0120000000e+05
    4.5198821463e-03    1.0120000000e+05
    4.5299497433e-03    1.0120000000e+05
    4.5397705398e-03    1.0120000000e+05
    4.5498372056e-03    1.0120000000e+05
    4.5599187724e-03    1.0120000000e+05
    4.5697651803e-03    1.0120000000e+05
    4.5798625797e-03    1.0120000000e+05
    4.5899599791e-03    1.0120000000e+05
    4.5998273417e-03    1.0120000000e+05
    4.6099531464e-03    1.0120000000e+05
    4.6198200434e-03    1.0120000000e+05
    4.6299481764e-03    1.0120000000e+05
    4.6398504637e-03    1.0120000000e+05
    4.6499939635e-03    1.0120000000e+05
    4.6598920599e-03    1.0120000000e+05
    4.6698031947e-03    1.0120000000e+05
    4.6799872071e-03    1.0120000000e+05
    4.6898932196e-03    1.0120000000e+05
    4.6998150647e-03    1.0120000000e+05
    4.7097606584e-03    1.0120000000e+05
    4.7199684195e-03    1.0120000000e+05
    4.7298986465e-03    1.0120000000e+05
    4.7398488969e-03    1.0120000000e+05
    4.7498266213e-03    1.0120000000e+05
    4.7597973607e-03    1.0120000000e+05
    4.7699995339e-03    1.0120000000e+05
    4.7799767926e-03    1.0120000000e+05
    4.7899703495e-03    1.0120000000e+05
    4.7999653034e-03    1.0120000000e+05
    4.8099462874e-03    1.0120000000e+05
    4.8199482262e-03    1.0120000000e+05
    4.8299548216e-03    1.0120000000e+05
    4.8399758525e-03    1.0120000000e+05
    4.8499954864e-03    1.0120000000e+05
    4.8597622663e-03    1.0120000000e+05
    4.8697874881e-03    1.0120000000e+05
    4.8798280768e-03    1.0120000000e+05
    4.8898817040e-03    1.0120000000e+05
    4.8999306746e-03    1.0120000000e+05
    4.9099768512e-03    1.0120000000e+05
    4.9197790213e-03    1.0120000000e+05
    4.9298596568e-03    1.0120000000e+05
    4.9399342388e-03    1.0120000000e+05
    4.9499939196e-03    1.0120000000e+05
    4.9598128535e-03    1.0120000000e+05
    4.9699097872e-03    1.0120000000e+05
    4.9797529355e-03    1.0120000000e+05
    4.9898372963e-03    1.0120000000e+05
    4.9999253824e-03    1.0120000000e+05
    5.0097727217e-03    1.0120000000e+05
    5.0198966637e-03    1.0120000000e+05
    5.0297556445e-03    1.0120000000e+05
    5.0398646854e-03    1.0120000000e+05
    5.0499746576e-03    1.0120000000e+05
    5.0598513335e-03    1.0120000000e+05
    5.0697401166e-03    1.0120000000e+05
    5.0798892044e-03    1.0120000000e+05
    5.0897751935e-03    1.0120000000e+05
    5.0999177620e-03    1.0120000000e+05
    5.1098070107e-03    1.0120000000e+05
    5.1199570298e-03    1.0120000000e+05
    5.1298537292e-03    1.0120000000e+05
    5.1397546194e-03    1.0120000000e+05
    5.1499130204e-03    1.0122544531e+05
    5.1598083228e-03    2.5267601562e+05
    5.1699629985e-03    2.6183635938e+05
    5.1798550412e-03    2.6046960938e+05
    5.1897475496e-03    2.5914092188e+05
    5.1999073476e-03    2.5778825000e+05
    5.2098152228e-03    2.5648179688e+05
    5.2199824713e-03    2.5515370312e+05
    5.2298870869e-03    2.5387207812e+05
    5.2397903055e-03    2.5260248438e+05
    5.2499533631e-03    2.5131167188e+05
    5.2598551847e-03    2.5006560938e+05
    5.2697579376e-03    2.4883081250e+05
    5.2799209952e-03    2.4757518750e+05
    5.2898242138e-03    2.4636298438e+05
    5.2999872714e-03    2.4513048438e+05
    5.3098895587e-03    2.4394075000e+05
    5.3197918460e-03    2.4276192188e+05
    5.3299544379e-03    2.4156318750e+05
    5.3398562595e-03    2.4040592188e+05
    5.3497580811e-03    2.3925900000e+05
    5.3599206731e-03    2.3809262500e+05
    5.3698220290e-03    2.3696648438e+05
    5.3799836896e-03    2.3582117188e+05
    5.3898836486e-03    2.3471520312e+05
    5.3997836076e-03    2.3361895312e+05
    5.4099434055e-03    2.3250392188e+05
    5.4198424332e-03    2.3142745312e+05
    5.4297419265e-03    2.3036079688e+05
    5.4399017245e-03    2.2927575000e+05
    5.4498016834e-03    2.2822760938e+05
    5.4599614814e-03    2.2716117188e+05
    5.4698665626e-03    2.2613075000e+05
    5.4797730409e-03    2.2510943750e+05
    5.4899435490e-03    2.2407037500e+05
    5.4998560809e-03    2.2306626562e+05
    5.5097811855e-03    2.2206935938e+05
    5.5199749768e-03    2.2105445312e+05
    5.5299121886e-03    2.2007426562e+05
    5.5398498662e-03    2.1910270312e+05
    5.5497861467e-03    2.1813926562e+05
    5.5599827319e-03    2.1715842188e+05
    5.5699162185e-03    2.1621073438e+05
    5.5798492394e-03    2.1527157812e+05
    5.5897836573e-03    2.1434112500e+05
    5.5999825709e-03    2.1339448438e+05
    5.6099244393e-03    2.1247932812e+05
    5.6198653765e-03    2.1157139062e+05
    5.6298053823e-03    2.1067089062e+05
    5.6397444569e-03    2.0977814062e+05
    5.6499443017e-03    2.0887001562e+05
    5.6598829105e-03    2.0799281250e+05
    5.6698233820e-03    2.0712260938e+05
    5.6797666475e-03    2.0625917188e+05
    5.6899706833e-03    2.0538045312e+05
    5.6999120861e-03    2.0453167188e+05
    5.7098525576e-03    2.0369007812e+05
    5.7197920978e-03    2.0285570312e+05
    5.7299965993e-03    2.0200629688e+05
    5.7399426587e-03    2.0118517188e+05
    5.7498877868e-03    2.0037081250e+05
    5.7598315179e-03    1.9956304688e+05
    5.7697743177e-03    1.9876182812e+05
    5.7799806818e-03    1.9794604688e+05
    5.7899295352e-03    1.9715737500e+05
    5.7998774573e-03    1.9637518750e+05
    5.8098244481e-03    1.9559945312e+05
    5.8197705075e-03    1.9483017188e+05
    5.8299805969e-03    1.9404689062e+05
    5.8399313129e-03    1.9328970312e+05
    5.8498806320e-03    1.9253867188e+05
    5.8598294854e-03    1.9179354688e+05
    5.8697778732e-03    1.9105431250e+05
    5.8799921535e-03    1.9030139062e+05
    5.8899438009e-03    1.8957367188e+05
    5.8998945169e-03    1.8885179688e+05
    5.9098447673e-03    1.8813567188e+05
    5.9197978117e-03    1.8742501562e+05
    5.9297513217e-03    1.8671987500e+05
    5.9399656020e-03    1.8600192188e+05
    5.9499177150e-03    1.8530785938e+05
    5.9598716907e-03    1.8461912500e+05
    5.9698256664e-03    1.8393582812e+05
    5.9797791764e-03    1.8325804688e+05
    5.9899943881e-03    1.8256779688e+05
    5.9999483638e-03    1.8190017188e+05
    6.0099023394e-03    1.8123751562e+05
    6.0198563151e-03    1.8058001562e+05
    6.0298093595e-03    1.7992779688e+05
    6.0397638008e-03    1.7928068750e+05
    6.0499794781e-03    1.7862168750e+05
    6.0599329881e-03    1.7798443750e+05
    6.0698864982e-03    1.7735195312e+05
    6.0798395425e-03    1.7672432812e+05
    6.0897925869e-03    1.7610145312e+05
    6.0997451656e-03    1.7548317188e+05
    6.1099599116e-03    1.7485332812e+05
    6.1199120246e-03    1.7424442188e+05
    6.1298636720e-03    1.7364028125e+05
    6.1398153193e-03    1.7304075000e+05
    6.1497674324e-03    1.7244557812e+05
    6.1599826440e-03    1.7183920312e+05
    6.1699352227e-03    1.7125279688e+05
    6.1798868701e-03    1.7067085938e+05
    6.1898380518e-03    1.7009329688e+05
    6.1997887678e-03    1.6952001562e+05
    6.2097394839e-03    1.6895090625e+05
    6.2199514359e-03    1.6837115625e+05
    6.2299030833e-03    1.6781040625e+05
    6.2398551963e-03    1.6725375000e+05
    6.2498068437e-03    1.6670117188e+05
    6.2597584911e-03    1.6615265625e+05
    6.2699713744e-03    1.6559384375e+05
    6.2799225561e-03    1.6505335938e+05
    6.2898732722e-03    1.6451679688e+05
    6.2998235226e-03    1.6398415625e+05
    6.3097742386e-03    1.6345540625e+05
    6.3199857250e-03    1.6291678125e+05
    6.3299355097e-03    1.6239582812e+05
    6.3398843631e-03    1.6187854688e+05
    6.3498332165e-03    1.6136484375e+05
    6.3597816043e-03    1.6085470312e+05
    6.3699916936e-03    1.6033493750e+05
    6.3799396157e-03    1.5983229688e+05
    6.3898880035e-03    1.5933340625e+05
    6.3998373225e-03    1.5883807812e+05
    6.4097866416e-03    1.5834618750e+05
    6.4199976623e-03    1.5784479688e+05
    6.4299455844e-03    1.5735962500e+05
    6.4398930408e-03    1.5687781250e+05
    6.4498404972e-03    1.5639946875e+05
    6.4597874880e-03    1.5592465625e+05
    6.4699966460e-03    1.5544092188e+05
    6.4799445681e-03    1.5497279688e+05
    6.4898924902e-03    1.5450778125e+05
    6.4998399466e-03    1.5404592188e+05
    6.5097869374e-03    1.5358728125e+05
    6.5199951641e-03    1.5312000000e+05
    6.5299416892e-03    1.5266796875e+05
    6.5398882143e-03    1.5221909375e+05
    6.5498342738e-03    1.5177328125e+05
    6.5597798675e-03    1.5133043750e+05
    6.5699871629e-03    1.5087900000e+05
    6.5799322911e-03    1.5044220312e+05
    6.5898769535e-03    1.5000848438e+05
    6.5998220816e-03    1.4957778125e+05
    6.6097667441e-03    1.4914998438e+05
    6.6199731082e-03    1.4871389062e+05
    6.6299168393e-03    1.4829190625e+05
    6.6398619674e-03    1.4787276562e+05
    6.6498080269e-03    1.4745643750e+05
    6.6597545519e-03    1.4704284375e+05
    6.6699637100e-03    1.4662118750e+05
    6.6799148917e-03    1.4621298438e+05
    6.6898707300e-03    1.4580739062e+05
    6.6998288967e-03    1.4540448438e+05
    6.7097917199e-03    1.4500400000e+05
    6.7197633907e-03    1.4460579688e+05
    6.7297439091e-03    1.4420979688e+05
    6.7399912514e-03    1.4380592188e+05
    6.7499866709e-03    1.4341470312e+05
    6.7599914037e-03    1.4302575000e+05
    6.7697432823e-03    1.4264920312e+05
    6.7797643133e-03    1.4226475000e+05
    6.7897937261e-03    1.4188250000e+05
    6.7998371087e-03    1.4150223438e+05
    6.8098884076e-03    1.4112412500e+05
    6.8199466914e-03    1.4074825000e+05
    6.8297488615e-03    1.4038423438e+05
    6.8398257717e-03    1.4001242188e+05
    6.8499138579e-03    1.3964278125e+05
    6.8597421050e-03    1.3928512500e+05
    6.8698446266e-03    1.3891993750e+05
    6.8799550645e-03    1.3855662500e+05
    6.8898079917e-03    1.3820470312e+05
    6.8999375217e-03    1.3784523438e+05
    6.9098039530e-03    1.3749757812e+05
    6.9199469872e-03    1.3714268750e+05
    6.9298301823e-03    1.3679904688e+05
    6.9399885833e-03    1.3644796875e+05
    6.9498913363e-03    1.3610778125e+05
    6.9597978145e-03    1.3576960938e+05
    6.9699794985e-03    1.3542439062e+05
    6.9798994809e-03    1.3509018750e+05
    6.9898259826e-03    1.3475796875e+05
    6.9997650571e-03    1.3442735938e+05
    7.0099742152e-03    1.3408990625e+05
    7.0199216716e-03    1.3376320312e+05
    7.0298779756e-03    1.3343828125e+05
    7.0398407988e-03    1.3311523438e+05
    7.0498115383e-03    1.3279393750e+05
    7.0597850718e-03    1.3247453125e+05
    7.0697627962e-03    1.3215704688e+05
    7.0797516964e-03    1.3184117188e+05
    7.0897461846e-03    1.3152712500e+05
    7.0997485891e-03    1.3121473438e+05
    7.1097561158e-03    1.3090407031e+05
    7.1197664365e-03    1.3059527344e+05
    7.1297874674e-03    1.3028806250e+05
    7.1398136206e-03    1.2998272656e+05
    7.1498444304e-03    1.2967924219e+05
    7.1598780341e-03    1.2937753125e+05
    7.1699162945e-03    1.2907747656e+05
    7.1799634025e-03    1.2877878906e+05
    7.1897483431e-03    1.2848966406e+05
    7.1998061612e-03    1.2819443750e+05
    7.2098714299e-03    1.2790102344e+05
    7.2199385613e-03    1.2760946875e+05
    7.2297411971e-03    1.2732718750e+05
    7.2398236953e-03    1.2703846094e+05
    7.2499038652e-03    1.2675149219e+05
    7.2599933483e-03    1.2646602344e+05
    7.2698155418e-03    1.2618981250e+05
    7.2799138725e-03    1.2590757031e+05
    7.2897514328e-03    1.2563433594e+05
    7.2998590767e-03    1.2535537500e+05
    7.3099709116e-03    1.2507797656e+05
    7.3198224418e-03    1.2480925781e+05
    7.3299449869e-03    1.2453472656e+05
    7.3398067616e-03    1.2426891406e+05
    7.3499395512e-03    1.2399752344e+05
    7.3598013259e-03    1.2373503125e+05
    7.3699499480e-03    1.2346647656e+05
    7.3798252270e-03    1.2320666406e+05
    7.3899785057e-03    1.2294107031e+05
    7.3998644948e-03    1.2268402344e+05
    7.4097430333e-03    1.2242874219e+05
    7.4199172668e-03    1.2216741406e+05
    7.4298200198e-03    1.2191460156e+05
    7.4397255667e-03    1.2166321875e+05
    7.4499133043e-03    1.2140621875e+05
    7.4598146603e-03    1.2115789844e+05
    7.4699982069e-03    1.2090390625e+05
    7.4799205177e-03    1.2065777344e+05
    7.4898405001e-03    1.2041305469e+05
    7.4997739866e-03    1.2016944531e+05
    7.5099798851e-03    1.1992082031e+05
    7.5199068524e-03    1.1968066406e+05
    7.5298482552e-03    1.1944177344e+05
    7.5397882611e-03    1.1920435156e+05
    7.5497403741e-03    1.1896791406e+05
    7.5599756092e-03    1.1872596875e+05
    7.5699328445e-03    1.1849166406e+05
    7.5798965991e-03    1.1825814844e+05
    7.5898608193e-03    1.1802552344e+05
    7.5998208486e-03    1.1779421094e+05
    7.6097943820e-03    1.1756433594e+05
    7.6197688468e-03    1.1733685156e+05
    7.6297558844e-03    1.1711169531e+05
    7.6397489756e-03    1.1688860156e+05
    7.6497388072e-03    1.1666696875e+05
    7.6597323641e-03    1.1644553125e+05
    7.6697273180e-03    1.1622347656e+05
    7.6797236688e-03    1.1600056250e+05
    7.6897335239e-03    1.1577692969e+05
    7.6997471042e-03    1.1555378125e+05
    7.7097648755e-03    1.1533250781e+05
    7.7197859064e-03    1.1511447656e+05
    7.7298027463e-03    1.1490089844e+05
    7.7398270369e-03    1.1469178906e+05
    7.7498569153e-03    1.1448634375e+05
    7.7598928474e-03    1.1428271094e+05
    7.7699371614e-03    1.1407841406e+05
    7.7799828723e-03    1.1387140625e+05
    7.7897482552e-03    1.1366669531e+05
    7.7997944318e-03    1.1345311719e+05
    7.8098457307e-03    1.1323814844e+05
    7.8199068084e-03    1.1302377344e+05
    7.8299725428e-03    1.1281190625e+05
    7.8397644684e-03    1.1260958594e+05
    7.8498376533e-03    1.1240613281e+05
    7.8599099070e-03    1.1220787500e+05
    7.8699830920e-03    1.1201467969e+05
    7.8797833994e-03    1.1183083594e+05
    7.8898733482e-03    1.1164416406e+05
    7.8999679536e-03    1.1145778906e+05
    7.9097850248e-03    1.1127477344e+05
    7.9198852181e-03    1.1108327344e+05
    7.9299872741e-03    1.1088834375e+05
    7.9398108646e-03    1.1069636719e+05
    7.9499213025e-03    1.1049771875e+05
    7.9597579315e-03    1.1030483594e+05
    7.9698823392e-03    1.1010788281e+05
    7.9797273502e-03    1.0991846094e+05
    7.9898564145e-03    1.0972588281e+05
    7.9999854788e-03    1.0953553906e+05
    8.0098379403e-03    1.0935253906e+05
    8.0199753866e-03    1.0916658594e+05
    8.0298408866e-03    1.0898813281e+05
    8.0399923027e-03    1.0880713281e+05
    8.0498680472e-03    1.0863335156e+05
    8.0597456545e-03    1.0846122656e+05
    8.0699073151e-03    1.0828527344e+05
    8.0797877163e-03    1.0811477344e+05
    8.0899549648e-03    1.0793944531e+05
    8.0998484045e-03    1.0776853906e+05
    8.1097483635e-03    1.0759717969e+05
    8.1199342385e-03    1.0742085156e+05
    8.1298416480e-03    1.0724989844e+05
    8.1397490576e-03    1.0707996094e+05
    8.1499423832e-03    1.0690647656e+05
    8.1598581746e-03    1.0673919531e+05
    8.1697786227e-03    1.0657319531e+05
    8.1799943000e-03    1.0640353125e+05
    8.1899268553e-03    1.0623943750e+05
    8.1998622045e-03    1.0607597656e+05
    8.2098003477e-03    1.0591308594e+05
    8.2197422162e-03    1.0575069531e+05
    8.2299718633e-03    1.0558418750e+05
    8.2399258390e-03    1.0542275781e+05
    8.2498854026e-03    1.0526191406e+05
    8.2598505542e-03    1.0510181250e+05
    8.2698157057e-03    1.0494266406e+05
    8.2797827199e-03    1.0478438281e+05
    8.2897581160e-03    1.0462665625e+05
    8.2997353747e-03    1.0446952344e+05
    8.3097191527e-03    1.0431311719e+05
    8.3199962974e-03    1.0415322656e+05
    8.3299921826e-03    1.0399882031e+05
    8.3399908617e-03    1.0384524219e+05
    8.3499904722e-03    1.0369242969e+05
    8.3599956706e-03    1.0354034375e+05
    8.3697214723e-03    1.0339340625e+05
    8.3797359839e-03    1.0324314844e+05
    8.3897523582e-03    1.0309386719e+05
    8.3997780457e-03    1.0294525000e+05
    8.4098074585e-03    1.0279725781e+05
    8.4198452532e-03    1.0264996875e+05
    8.4298904985e-03    1.0250360156e+05
    8.4399459884e-03    1.0235808594e+05
    8.4497202188e-03    1.0221722656e+05
    8.4597803652e-03    1.0207285156e+05
    8.4698386490e-03    1.0192937500e+05
    8.4798969328e-03    1.0178685156e+05
    8.4899496287e-03    1.0164505469e+05
    8.4997247905e-03    1.0150760156e+05
    8.5097914562e-03    1.0136665625e+05
    8.5198655725e-03    1.0122656250e+05
    8.5299424827e-03    1.0108742969e+05
    8.5397269577e-03    1.0095303125e+05
    8.5498010740e-03    1.0081519531e+05
    8.5598817095e-03    1.0067793750e+05
    8.5699567571e-03    1.0054177344e+05
    8.5797524080e-03    1.0041039844e+05
    8.5898423567e-03    1.0027585156e+05
    8.5999313742e-03    1.0014180469e+05
    8.6097400635e-03    1.0001177344e+05
    8.6198356003e-03    9.9878382812e+04
    8.6299460381e-03    9.9745437500e+04
    8.6397817358e-03    9.9616648438e+04
    8.6499108002e-03    9.9484335938e+04
    8.6597567424e-03    9.9355804688e+04
    8.6698979139e-03    9.9223523438e+04
    8.6797475815e-03    9.9095281250e+04
    8.6898859590e-03    9.8963726562e+04
    8.6997309700e-03    9.8836617188e+04
    8.7098646909e-03    9.8706648438e+04
    8.7197124958e-03    9.8581312500e+04
    8.7298518047e-03    9.8453367188e+04
    8.7399985641e-03    9.8326554688e+04
    8.7498603389e-03    9.8204648438e+04
    8.7597211823e-03    9.8084398438e+04
    8.7698716670e-03    9.7962585938e+04
    8.7797306478e-03    9.7846054688e+04
    8.7898755446e-03    9.7727507812e+04
    8.7997326627e-03    9.7613031250e+04
    8.8098803535e-03    9.7495187500e+04
    8.8197402656e-03    9.7379960938e+04
    8.8298944756e-03    9.7259960938e+04
    8.8397590443e-03    9.7142085938e+04
    8.8499113917e-03    9.7019851562e+04
    8.8597750291e-03    9.6900835938e+04
    8.8699245825e-03    9.6778726562e+04
    8.8797854260e-03    9.6661070312e+04
    8.8899424300e-03    9.6541414062e+04
    8.8998107240e-03    9.6427054688e+04
    8.9099714532e-03    9.6311335938e+04
    8.9198388159e-03    9.6200851562e+04
    8.9299967512e-03    9.6088695312e+04
    8.9398706332e-03    9.5980679688e+04
    8.9497473091e-03    9.5873187500e+04
    8.9599136263e-03    9.5762835938e+04
    8.9697949588e-03    9.5655773438e+04
    8.9799705893e-03    9.5545601562e+04
    8.9898565784e-03    9.5438500000e+04
    8.9997407049e-03    9.5331156250e+04
    9.0099098161e-03    9.5220343750e+04
    9.0197976679e-03    9.5112304688e+04
    9.0299844742e-03    9.5000835938e+04
    9.0398797765e-03    9.4892664062e+04
    9.0497843921e-03    9.4784914062e+04
    9.0599814430e-03    9.4675039062e+04
    9.0698916465e-03    9.4569804688e+04
    9.0798009187e-03    9.4466476562e+04
    9.0897092596e-03    9.4365257812e+04
    9.0999063104e-03    9.4263117188e+04
    9.1098109260e-03    9.4165437500e+04
    9.1197146103e-03    9.4068351562e+04
    9.1299088672e-03    9.3967882812e+04
    9.1398106888e-03    9.3868898438e+04
    9.1497134417e-03    9.3768101562e+04
    9.1599067673e-03    9.3662718750e+04
    9.1698085889e-03    9.3559507812e+04
    9.1797122732e-03    9.3456648438e+04
    9.1899074614e-03    9.3352320312e+04
    9.1998102143e-03    9.3253382812e+04
    9.2097148299e-03    9.3157148438e+04
    9.2199100181e-03    9.3060679688e+04
    9.2298118398e-03    9.2968898438e+04
    9.2397127301e-03    9.2878062500e+04
    9.2499069870e-03    9.2784492188e+04
    9.2598116025e-03    9.2692601562e+04
    9.2697171494e-03    9.2599070312e+04
    9.2799151316e-03    9.2500898438e+04
    9.2898216099e-03    9.2404250000e+04
    9.2997271568e-03    9.2307406250e+04
    9.3099279329e-03    9.2208781250e+04
    9.3198437244e-03    9.2114906250e+04
    9.3297716230e-03    9.2023335938e+04
    9.3399928883e-03    9.1931593750e+04
    9.3499235809e-03    9.1844617188e+04
    9.3598514795e-03    9.1759070312e+04
    9.3697793782e-03    9.1673867188e+04
    9.3797249720e-03    9.1587601562e+04
    9.3899779022e-03    9.1496742188e+04
    9.3999467790e-03    9.1406343750e+04
    9.4099156559e-03    9.1314476562e+04
    9.4198882580e-03    9.1222226562e+04
    9.4298580661e-03    9.1130976562e+04
    9.4398492947e-03    9.1041789062e+04
    9.4498600811e-03    9.0955531250e+04
    9.4598839059e-03    9.0872250000e+04
    9.4699161127e-03    9.0791093750e+04
    9.4799483195e-03    9.0710648438e+04
    9.4899944961e-03    9.0629101562e+04
    9.4997519627e-03    9.0547812500e+04
    9.5098074526e-03    9.0461601562e+04
    9.5198759809e-03    9.0373437500e+04
    9.5299547538e-03    9.0284718750e+04
    9.5397392288e-03    9.0199750000e+04
    9.5498263836e-03    9.0114804688e+04
    9.5599321648e-03    9.0033039062e+04
    9.5697492361e-03    8.9956531250e+04
    9.5798773691e-03    8.9879437500e+04
    9.5897167921e-03    8.9804695312e+04
    9.5998570323e-03    8.9726210938e+04
    9.6097085625e-03    8.9647562500e+04
    9.6198720858e-03    8.9564039062e+04
    9.6297478303e-03    8.9481632812e+04
    9.6399337053e-03    8.9397039062e+04
    9.6498196945e-03    8.9316851562e+04
    9.6597056836e-03    8.9239539062e+04
    9.6698934212e-03    8.9163039062e+04
    9.6797822043e-03    8.9091156250e+04
    9.6899839118e-03    8.9017945312e+04
    9.6998969093e-03    8.8945875000e+04
    9.7098099068e-03    8.8871414062e+04
    9.7197256982e-03    8.8794242188e+04
    9.7299497575e-03    8.8712937500e+04
    9.7398981452e-03    8.8634070312e+04
    9.7498754039e-03    8.8557039062e+04
    9.7598992288e-03    8.8482718750e+04
    9.7697088495e-03    8.8413023438e+04
    9.7799748182e-03    8.8342335938e+04
    9.7898077220e-03    8.8275164062e+04
    9.7998520359e-03    8.8205335938e+04
    9.8097911105e-03    8.8133835938e+04
    9.8199481145e-03    8.8058226562e+04
    9.8299747333e-03    8.7982406250e+04
    9.8398467526e-03    8.7908531250e+04
    9.8499031737e-03    8.7835695312e+04
    9.8597733304e-03    8.7767210938e+04
    9.8698111251e-03    8.7700179688e+04
    9.8796319216e-03    8.7635906250e+04
    9.8899910226e-03    8.7567757812e+04
    9.8997270688e-03    8.7502023438e+04
    9.9099995568e-03    8.7430289062e+04
    9.9196126685e-03    8.7361601562e+04
    9.9297603592e-03    8.7289007812e+04
    9.9396305159e-03    8.7220070312e+04
    9.9496189505e-03    8.7153054688e+04
    9.9597293884e-03    8.7087960938e+04
    9.9699636921e-03    8.7023625000e+04
    9.9798878655e-03    8.6961148438e+04
    9.9899275228e-03    8.6896539062e+04
    9.9996328354e-03    8.6832242188e+04
    1.0009877384e-02    8.6762937500e+04
    1.0019771755e-02    8.6695882812e+04
    1.0029754601e-02    8.6629554688e+04
    1.0039805435e-02    8.6565031250e+04
    1.0049898177e-02    8.6502523438e+04
    1.0059559718e-02    8.6443976562e+04
    1.0069724172e-02    8.6382554688e+04
    1.0079927742e-02    8.6319656250e+04
    1.0089719668e-02    8.6257812500e+04
    1.0099549778e-02    8.6194593750e+04
    1.0109895840e-02    8.6128125000e+04
    1.0119836777e-02    8.6065546875e+04
    1.0129812174e-02    8.6004648438e+04
    1.0139838792e-02    8.5945304688e+04
    1.0149925016e-02    8.5886703125e+04
    1.0159522295e-02    8.5830656250e+04
    1.0169716552e-02    8.5770226562e+04
    1.0179929435e-02    8.5708398438e+04
    1.0189677589e-02    8.5648515625e+04
    1.0199998505e-02    8.5585890625e+04
    1.0209824890e-02    8.5527523438e+04
    1.0219705291e-02    8.5470617188e+04
    1.0229659267e-02    8.5414765625e+04
    1.0239593685e-02    8.5359179688e+04
    1.0249645449e-02    8.5302726562e+04
    1.0259714909e-02    8.5244664062e+04
    1.0269751772e-02    8.5186093750e+04
    1.0279872455e-02    8.5127296875e+04
    1.0289525613e-02    8.5072101562e+04
    1.0299682617e-02    8.5015078125e+04
    1.0309927166e-02    8.4959187500e+04
    1.0319711640e-02    8.4905937500e+04
    1.0329581797e-02    8.4852695312e+04
    1.0339907371e-02    8.4795945312e+04
    1.0349772871e-02    8.4741312500e+04
    1.0359722190e-02    8.4686554688e+04
    1.0369664058e-02    8.4631890625e+04
    1.0379649699e-02    8.4578367188e+04
    1.0389617644e-02    8.4525656250e+04
    1.0399571620e-02    8.4473476562e+04
    1.0409601964e-02    8.4421820312e+04
    1.0419672355e-02    8.4369335938e+04
    1.0429759510e-02    8.4316304688e+04
    1.0439907201e-02    8.4262945312e+04
    1.0449524038e-02    8.4212453125e+04
    1.0459695011e-02    8.4160265625e+04
    1.0469933040e-02    8.4108476562e+04
    1.0479599237e-02    8.4060234375e+04
    1.0489890352e-02    8.4008812500e+04
    1.0499609634e-02    8.3960195312e+04
    1.0509944521e-02    8.3908375000e+04
    1.0519672185e-02    8.3859437500e+04
    1.0529963300e-02    8.3808304688e+04
    1.0539642535e-02    8.3760585938e+04
    1.0549719445e-02    8.3711390625e+04
    1.0559543967e-02    8.3663773438e+04
    1.0569527745e-02    8.3615656250e+04
    1.0579599068e-02    8.3567210938e+04
    1.0589709505e-02    8.3518617188e+04
    1.0599821806e-02    8.3470273438e+04
    1.0609893128e-02    8.3422507812e+04
    1.0619878769e-02    8.3375453125e+04
    1.0629735887e-02    8.3329281250e+04
    1.0639768094e-02    8.3282671875e+04
    1.0649860837e-02    8.3236085938e+04
    1.0659895837e-02    8.3189828125e+04
    1.0669741780e-02    8.3144398438e+04
    1.0679758154e-02    8.3098390625e+04
    1.0689825751e-02    8.3052617188e+04
    1.0699842125e-02    8.3007570312e+04
    1.0709995404e-02    8.2962187500e+04
    1.0719907470e-02    8.2918281250e+04
    1.0729939677e-02    8.2873828125e+04
    1.0739936493e-02    8.2829593750e+04
    1.0749890469e-02    8.2785812500e+04
    1.0759933852e-02    8.2742054688e+04
    1.0769939050e-02    8.2698835938e+04
    1.0779828764e-02    8.2656421875e+04
    1.0789847933e-02    8.2613796875e+04
    1.0799955577e-02    8.2570984375e+04
    1.0809942149e-02    8.2528781250e+04
    1.0819903575e-02    8.2486820312e+04
    1.0829878971e-02    8.2445093750e+04
    1.0839886963e-02    8.2403531250e+04
    1.0849861428e-02    8.2362460938e+04
    1.0859817266e-02    8.2321859375e+04
    1.0869924910e-02    8.2280789062e+04
    1.0879935697e-02    8.2240179688e+04
    1.0889831930e-02    8.2200093750e+04
    1.0899813846e-02    8.2159898438e+04
    1.0909873992e-02    8.2119710938e+04
    1.0919998400e-02    8.2079515625e+04
    1.0929955170e-02    8.2040203125e+04
    1.0939950123e-02    8.2000968750e+04
    1.0949760675e-02    8.1962679688e+04
    1.0959858075e-02    8.1923484375e+04
    1.0969977826e-02    8.1884421875e+04
    1.0979909450e-02    8.1846328125e+04
    1.0989851318e-02    8.1808406250e+04
    1.0999843478e-02    8.1770562500e+04
    1.1009846814e-02    8.1732984375e+04
    1.1019877158e-02    8.1695656250e+04
    1.1029948480e-02    8.1658398438e+04
    1.1039765552e-02    8.1622148438e+04
    1.1049886234e-02    8.1584843750e+04
    1.1059991084e-02    8.1547843750e+04
    1.1069896631e-02    8.1512000000e+04
    1.1079820804e-02    8.1476421875e+04
    1.1089985259e-02    8.1440062500e+04
    1.1099949479e-02    8.1404445312e+04
    1.1109910905e-02    8.1369000000e+04
    1.1119912378e-02    8.1333679688e+04
    1.1129918508e-02    8.1298593750e+04
    1.1139945127e-02    8.1263765625e+04
    1.1149750091e-02    8.1230007812e+04
    1.1159809306e-02    8.1195554688e+04
    1.1169891804e-02    8.1161109375e+04
    1.1179993860e-02    8.1126726562e+04
    1.1189855635e-02    8.1093390625e+04
    1.1199988425e-02    8.1059468750e+04
    1.1209880933e-02    8.1026710938e+04
    1.1219793931e-02    8.0994125000e+04
    1.1229965836e-02    8.0960773438e+04
    1.1239902116e-02    8.0928226562e+04
    1.1249855161e-02    8.0895734375e+04
    1.1259817518e-02    8.0863523438e+04
    1.1269789189e-02    8.0831640625e+04
    1.1279777624e-02    8.0799992188e+04
    1.1289783753e-02    8.0768398438e+04
    1.1299792677e-02    8.0736890625e+04
    1.1309812777e-02    8.0705523438e+04
    1.1319849640e-02    8.0674359375e+04
    1.1329892091e-02    8.0643460938e+04
    1.1339937337e-02    8.0612820312e+04
    1.1349743232e-02    8.0583101562e+04
    1.1359825730e-02    8.0552632812e+04
    1.1369909160e-02    8.0522273438e+04
    1.1379743926e-02    8.0492921875e+04
    1.1389856227e-02    8.0463085938e+04
    1.1399973184e-02    8.0433507812e+04
    1.1409829371e-02    8.0404718750e+04
    1.1419954710e-02    8.0375171875e+04
    1.1429844424e-02    8.0346562500e+04
    1.1439991184e-02    8.0317570312e+04
    1.1449882761e-02    8.0289570312e+04
    1.1459789239e-02    8.0261671875e+04
    1.1469970457e-02    8.0233132812e+04
    1.1479881592e-02    8.0205484375e+04
    1.1489805765e-02    8.0177992188e+04
    1.1499751359e-02    8.0150734375e+04
    1.1509958655e-02    8.0123007812e+04
    1.1519894935e-02    8.0096156250e+04
    1.1529857293e-02    8.0069343750e+04
    1.1539832689e-02    8.0042679688e+04
    1.1549798772e-02    8.0016265625e+04
    1.1559766717e-02    7.9990093750e+04
    1.1569755152e-02    7.9964046875e+04
    1.1579749174e-02    7.9938148438e+04
    1.1589744128e-02    7.9912421875e+04
    1.1599744670e-02    7.9886843750e+04
    1.1609761044e-02    7.9861398438e+04
    1.1619775556e-02    7.9836179688e+04
    1.1629792862e-02    7.9811195312e+04
    1.1639830656e-02    7.9786343750e+04
    1.1649874039e-02    7.9761585938e+04
    1.1659909971e-02    7.9736953125e+04
    1.1669951491e-02    7.9712546875e+04
    1.1679746211e-02    7.9689085938e+04
    1.1689810082e-02    7.9665226562e+04
    1.1699868366e-02    7.9641375000e+04
    1.1709927581e-02    7.9617546875e+04
    1.1719736271e-02    7.9594593750e+04
    1.1729817837e-02    7.9571390625e+04
    1.1739904992e-02    7.9548367188e+04
    1.1749996804e-02    7.9525382812e+04
    1.1759826913e-02    7.9503085938e+04
    1.1769923382e-02    7.9480351562e+04
    1.1779760011e-02    7.9458429688e+04
    1.1789871380e-02    7.9436203125e+04
    1.1799979955e-02    7.9414187500e+04
    1.1809824035e-02    7.9392812500e+04
    1.1819940060e-02    7.9370929688e+04
    1.1829800904e-02    7.9349828125e+04
    1.1839930899e-02    7.9328437500e+04
    1.1849792674e-02    7.9307851562e+04
    1.1859920807e-02    7.9286820312e+04
    1.1869783513e-02    7.9266375000e+04
    1.1879912578e-02    7.9245515625e+04
    1.1889780872e-02    7.9225468750e+04
    1.1899918318e-02    7.9205210938e+04
    1.1909793131e-02    7.9185648438e+04
    1.1919938028e-02    7.9165554688e+04
    1.1929817498e-02    7.9146039062e+04
    1.1939964257e-02    7.9126234375e+04
    1.1949844658e-02    7.9107273438e+04
    1.1959992349e-02    7.9088023438e+04
    1.1969871819e-02    7.9069390625e+04
    1.1979752220e-02    7.9050843750e+04
    1.1989898980e-02    7.9031968750e+04
    1.1999778450e-02    7.9013812500e+04
    1.2009925209e-02    7.8995406250e+04
    1.2019805610e-02    7.8977585938e+04
    1.2029953301e-02    7.8959351562e+04
    1.2039834633e-02    7.8941804688e+04
    1.2049983256e-02    7.8924070312e+04
    1.2059864588e-02    7.8906984375e+04
    1.2069746852e-02    7.8889945312e+04
    1.2079896405e-02    7.8872570312e+04
    1.2089780532e-02    7.8855859375e+04
    1.2099931017e-02    7.8838953125e+04
    1.2109817006e-02    7.8822695312e+04
    1.2119969353e-02    7.8806062500e+04
    1.2129856274e-02    7.8789937500e+04
    1.2139743194e-02    7.8774054688e+04
    1.2149897404e-02    7.8758070312e+04
    1.2159785256e-02    7.8742695312e+04
    1.2169941328e-02    7.8726945312e+04
    1.2179831043e-02    7.8711664062e+04
    1.2189988047e-02    7.8696117188e+04
    1.2199877761e-02    7.8681242188e+04
    1.2209767476e-02    7.8666593750e+04
    1.2219925411e-02    7.8651687500e+04
    1.2229815125e-02    7.8637265625e+04
    1.2239973061e-02    7.8622632812e+04
    1.2249864638e-02    7.8608617188e+04
    1.2259755284e-02    7.8594765625e+04
    1.2269914150e-02    7.8580625000e+04
    1.2279806659e-02    7.8566992188e+04
    1.2289970182e-02    7.8553257812e+04
    1.2299871072e-02    7.8540109375e+04
    1.2309776619e-02    7.8527039062e+04
    1.2319950387e-02    7.8513695312e+04
    1.2329855002e-02    7.8500890625e+04
    1.2339758687e-02    7.8488312500e+04
    1.2349929661e-02    7.8475562500e+04
    1.2359832413e-02    7.8463273438e+04
    1.2369734235e-02    7.8451101562e+04
    1.2379905209e-02    7.8438703125e+04
    1.2389811687e-02    7.8426843750e+04
    1.2399986386e-02    7.8414921875e+04
    1.2409892865e-02    7.8403437500e+04
    1.2419799343e-02    7.8391992188e+04
    1.2429973111e-02    7.8380414062e+04
    1.2439880520e-02    7.8369421875e+04
    1.2449788861e-02    7.8358601562e+04
    1.2459965423e-02    7.8347578125e+04
    1.2469872832e-02    7.8337000000e+04
    1.2479781173e-02    7.8326671875e+04
    1.2489956804e-02    7.8316273438e+04
    1.2499865144e-02    7.8306210938e+04
    1.2509773485e-02    7.8296164062e+04
    1.2519950047e-02    7.8286015625e+04
    1.2529858388e-02    7.8276492188e+04
    1.2539767660e-02    7.8267250000e+04
    1.2549944222e-02    7.8257781250e+04
    1.2559853494e-02    7.8248531250e+04
    1.2569761835e-02    7.8239445312e+04
    1.2579938397e-02    7.8230437500e+04
    1.2589847669e-02    7.8221859375e+04
    1.2599756941e-02    7.8213304688e+04
    1.2609934434e-02    7.8204609375e+04
    1.2619843706e-02    7.8196398438e+04
    1.2629752979e-02    7.8188398438e+04
    1.2639929540e-02    7.8180289062e+04
    1.2649838813e-02    7.8172507812e+04
    1.2659749016e-02    7.8164921875e+04
    1.2669926509e-02    7.8157335938e+04
    1.2679836713e-02    7.8150117188e+04
    1.2689745985e-02    7.8143023438e+04
    1.2699923478e-02    7.8135859375e+04
    1.2709833682e-02    7.8129062500e+04
    1.2719743885e-02    7.8122484375e+04
    1.2729921378e-02    7.8115851562e+04
    1.2739831582e-02    7.8109468750e+04
    1.2749741785e-02    7.8103265625e+04
    1.2759919278e-02    7.8097125000e+04
    1.2769829482e-02    7.8091281250e+04
    1.2779740617e-02    7.8085531250e+04
    1.2789919041e-02    7.8079843750e+04
    1.2799829245e-02    7.8074546875e+04
    1.2809739448e-02    7.8069375000e+04
    1.2819917873e-02    7.8064101562e+04
    1.2829829007e-02    7.8059062500e+04
    1.2839739211e-02    7.8054273438e+04
    1.2849917635e-02    7.8049617188e+04
    1.2859828770e-02    7.8045210938e+04
    1.2869739905e-02    7.8040835938e+04
    1.2879918329e-02    7.8036468750e+04
    1.2889829464e-02    7.8032476562e+04
    1.2899740599e-02    7.8028742188e+04
    1.2909919955e-02    7.8025015625e+04
    1.2919831090e-02    7.8021445312e+04
    1.2929742225e-02    7.8018054688e+04
    1.2939921580e-02    7.8014828125e+04
    1.2949833646e-02    7.8011835938e+04
    1.2959744781e-02    7.8008953125e+04
    1.2969924137e-02    7.8006164062e+04
    1.2979836203e-02    7.8003632812e+04
    1.2989748269e-02    7.8001203125e+04
    1.2999927625e-02    7.7998859375e+04
    1.3009839691e-02    7.7996796875e+04
    1.3019750826e-02    7.7994867188e+04
    1.3029931113e-02    7.7992960938e+04
    1.3039844111e-02    7.7991265625e+04
    1.3049756177e-02    7.7989789062e+04
    1.3059937395e-02    7.7988390625e+04
    1.3069850393e-02    7.7987132812e+04
    1.3079763390e-02    7.7986085938e+04
    1.3089943677e-02    7.7985250000e+04
    1.3099856675e-02    7.7984601562e+04
    1.3109770603e-02    7.7984085938e+04
    1.3119951822e-02    7.7983742188e+04
    1.3129865751e-02    7.7983562500e+04
    1.3139779679e-02    7.7983546875e+04
    1.3149961829e-02    7.7983710938e+04
    1.3159876689e-02    7.7984078125e+04
    1.3169790618e-02    7.7984601562e+04
    1.3179972768e-02    7.7985218750e+04
    1.3189886697e-02    7.7985882812e+04
    1.3199801557e-02    7.7986695312e+04
    1.3209984638e-02    7.7987750000e+04
    1.3219899498e-02    7.7989000000e+04
    1.3229815289e-02    7.7990437500e+04
    1.3239999302e-02    7.7992031250e+04
    1.3249915093e-02    7.7993710938e+04
    1.3259830885e-02    7.7995570312e+04
    1.3269746676e-02    7.7997687500e+04
    1.3279931620e-02    7.8000093750e+04
    1.3289848343e-02    7.8002539062e+04
    1.3299765065e-02    7.8005085938e+04
    1.3309950009e-02    7.8007851562e+04
    1.3319866732e-02    7.8010773438e+04
    1.3329784386e-02    7.8013890625e+04
    1.3339969330e-02    7.8017234375e+04
    1.3349886984e-02    7.8020609375e+04
    1.3359804638e-02    7.8024187500e+04
    1.3369989581e-02    7.8028054688e+04
    1.3379907236e-02    7.8031953125e+04
    1.3389825821e-02    7.8035992188e+04
    1.3399743475e-02    7.8040234375e+04
    1.3409930281e-02    7.8044773438e+04
    1.3419849798e-02    7.8049359375e+04
    1.3429769315e-02    7.8054117188e+04
    1.3439956121e-02    7.8059164062e+04
    1.3449875638e-02    7.8064210938e+04
    1.3459795155e-02    7.8069421875e+04
    1.3469982892e-02    7.8074984375e+04
    1.3479902409e-02    7.8080593750e+04
    1.3489821926e-02    7.8086375000e+04
    1.3499742374e-02    7.8092320312e+04
    1.3509931043e-02    7.8098562500e+04
    1.3519851491e-02    7.8104773438e+04
    1.3529772870e-02    7.8111171875e+04
    1.3539961539e-02    7.8117953125e+04
    1.3549882919e-02    7.8124757812e+04
    1.3559803367e-02    7.8131710938e+04
    1.3569992967e-02    7.8139000000e+04
    1.3579914346e-02    7.8146273438e+04
    1.3589836657e-02    7.8153757812e+04
    1.3599758968e-02    7.8161429688e+04
    1.3609948568e-02    7.8169500000e+04
    1.3619870879e-02    7.8177546875e+04
    1.3629794121e-02    7.8185750000e+04
    1.3639984652e-02    7.8194335938e+04
    1.3649907894e-02    7.8202929688e+04
    1.3659831136e-02    7.8211718750e+04
    1.3669754378e-02    7.8220664062e+04
    1.3679945841e-02    7.8230000000e+04
    1.3689869083e-02    7.8239304688e+04
    1.3699793257e-02    7.8248796875e+04
    1.3709985651e-02    7.8258703125e+04
    1.3719909824e-02    7.8268546875e+04
    1.3729833998e-02    7.8278625000e+04
    1.3739759102e-02    7.8288875000e+04
    1.3749951497e-02    7.8299578125e+04
    1.3759875670e-02    7.8310179688e+04
    1.3769800775e-02    7.8320976562e+04
    1.3779994100e-02    7.8332289062e+04
    1.3789920136e-02    7.8343531250e+04
    1.3799845241e-02    7.8354945312e+04
    1.3809771277e-02    7.8366507812e+04
    1.3819964603e-02    7.8378593750e+04
    1.3829890639e-02    7.8390601562e+04
    1.3839816675e-02    7.8402835938e+04
    1.3849743642e-02    7.8415234375e+04
    1.3859937899e-02    7.8428132812e+04
    1.3869864866e-02    7.8440921875e+04
    1.3879791833e-02    7.8453953125e+04
    1.3889986090e-02    7.8467531250e+04
    1.3899913058e-02    7.8480906250e+04
    1.3909840956e-02    7.8494476562e+04
    1.3919768855e-02    7.8508304688e+04
    1.3929964043e-02    7.8522726562e+04
    1.3939891942e-02    7.8536945312e+04
    1.3949819840e-02    7.8551351562e+04
    1.3959747739e-02    7.8565960938e+04
    1.3969943859e-02    7.8581226562e+04
    1.3979872689e-02    7.8596320312e+04
    1.3989801519e-02    7.8611609375e+04
    1.3999998569e-02    7.8627539062e+04
    1.4009927399e-02    7.8643304688e+04
    1.4019856229e-02    7.8659320312e+04
    1.4029785059e-02    7.8675554688e+04
    1.4039983042e-02    7.8692460938e+04
    1.4049911872e-02    7.8709187500e+04
    1.4059841633e-02    7.8726132812e+04
    1.4069771394e-02    7.8743296875e+04
    1.4079969376e-02    7.8761156250e+04
    1.4089900069e-02    7.8778781250e+04
    1.4099829830e-02    7.8796648438e+04
    1.4109760523e-02    7.8814757812e+04
    1.4119959436e-02    7.8833578125e+04
    1.4129890129e-02    7.8852085938e+04
    1.4139820822e-02    7.8870828125e+04
    1.4149751514e-02    7.8890171875e+04
    1.4159950428e-02    7.8943867188e+04
    1.4169882052e-02    8.1243250000e+04
    1.4179813676e-02    1.0240597656e+05
    1.4189745300e-02    1.0259411719e+05
    1.4199945144e-02    1.0315103906e+05
    1.4209876768e-02    1.0325816406e+05
    1.4219808392e-02    1.0319067969e+05
    1.4229740947e-02    1.0311596875e+05
    1.4239940792e-02    1.0305106250e+05
    1.4249873348e-02    1.0299602344e+05
    1.4259805903e-02    1.0294643750e+05
    1.4269738458e-02    1.0289425000e+05
    1.4279939234e-02    1.0283807031e+05
    1.4289872721e-02    1.0278300781e+05
    1.4299805276e-02    1.0272875781e+05
    1.4309738763e-02    1.0267553906e+05
    1.4319940470e-02    1.0262084375e+05
    1.4329873025e-02    1.0256775781e+05
    1.4339806512e-02    1.0251472656e+05
    1.4349739999e-02    1.0246191406e+05
    1.4359942637e-02    1.0240762500e+05
    1.4369876124e-02    1.0235669531e+05
    1.4379809611e-02    1.0230317969e+05
    1.4389744028e-02    1.0225174219e+05
    1.4399946667e-02    1.0219912500e+05
    1.4409881085e-02    1.0214732031e+05
    1.4419815503e-02    1.0209562500e+05
    1.4429749921e-02    1.0204483594e+05
    1.4439953491e-02    1.0199296094e+05
    1.4449887909e-02    1.0194247656e+05
    1.4459822327e-02    1.0189057031e+05
    1.4469757676e-02    1.0184171094e+05
    1.4479961246e-02    1.0178925781e+05
    1.4489896595e-02    1.0173978906e+05
    1.4499831945e-02    1.0168974219e+05
    1.4509767294e-02    1.0164052344e+05
    1.4519970864e-02    1.0158980469e+05
    1.4529906213e-02    1.0154066406e+05
    1.4539842494e-02    1.0149164844e+05
    1.4549777843e-02    1.0144283594e+05
    1.4559982345e-02    1.0139300000e+05
    1.4569918625e-02    1.0134458594e+05
    1.4579854906e-02    1.0129646875e+05
    1.4589790255e-02    1.0124850000e+05
    1.4599995688e-02    1.0119944531e+05
    1.4609931968e-02    1.0115197656e+05
    1.4619868249e-02    1.0110464844e+05
    1.4629804529e-02    1.0105753906e+05
    1.4639740810e-02    1.0101055469e+05
    1.4649946243e-02    1.0096244531e+05
    1.4659883454e-02    1.0091580469e+05
    1.4669820666e-02    1.0086919531e+05
    1.4679756947e-02    1.0082277344e+05
    1.4689963311e-02    1.0077527344e+05
    1.4699900523e-02    1.0072921094e+05
    1.4709837735e-02    1.0068340625e+05
    1.4719774947e-02    1.0063771875e+05
    1.4729980379e-02    1.0059103906e+05
    1.4739917591e-02    1.0054582031e+05
    1.4749855734e-02    1.0050064844e+05
    1.4759792946e-02    1.0045558594e+05
    1.4769999310e-02    1.0040991406e+05
    1.4779936522e-02    1.0036558594e+05
    1.4789874665e-02    1.0032028125e+05
    1.4799811877e-02    1.0027658594e+05
    1.4809750021e-02    1.0023262500e+05
    1.4819956385e-02    1.0018766406e+05
    1.4829894528e-02    1.0014302344e+05
    1.4839832671e-02    1.0010034375e+05
    1.4849770814e-02    1.0005737500e+05
    1.4859977178e-02    1.0001196875e+05
    1.4869915321e-02    9.9968976562e+04
    1.4879853465e-02    9.9926539062e+04
    1.4889791608e-02    9.9882906250e+04
    1.4899998903e-02    9.9839687500e+04
    1.4909937046e-02    9.9796976562e+04
    1.4919875190e-02    9.9755164062e+04
    1.4929813333e-02    9.9713000000e+04
    1.4939752407e-02    9.9671257812e+04
    1.4949958771e-02    9.9628125000e+04
    1.4959897846e-02    9.9586257812e+04
    1.4969835989e-02    9.9544617188e+04
    1.4979774132e-02    9.9503210938e+04
    1.4989981428e-02    9.9460898438e+04
    1.4999920502e-02    9.9419851562e+04
    1.5009858645e-02    9.9379000000e+04
    1.5019796789e-02    9.9338273438e+04
    1.5029735863e-02    9.9297625000e+04
    1.5039943159e-02    9.9255992188e+04
    1.5049881302e-02    9.9215632812e+04
    1.5059820376e-02    9.9175414062e+04
    1.5069758520e-02    9.9135273438e+04
    1.5079965815e-02    9.9094187500e+04
    1.5089904889e-02    9.9054351562e+04
    1.5099843033e-02    9.9014625000e+04
    1.5109782107e-02    9.8975007812e+04
    1.5119989403e-02    9.8934406250e+04
    1.5129927546e-02    9.8895093750e+04
    1.5139866620e-02    9.8856210938e+04
    1.5149804763e-02    9.8816820312e+04
    1.5159742907e-02    9.8777601562e+04
    1.5169950202e-02    9.8738273438e+04
    1.5179889277e-02    9.8699187500e+04
    1.5189827420e-02    9.8660320312e+04
    1.5199766494e-02    9.8621593750e+04
    1.5209973790e-02    9.8583250000e+04
    1.5219911933e-02    9.8544460938e+04
    1.5229850076e-02    9.8506085938e+04
    1.5239789151e-02    9.8468281250e+04
    1.5249995515e-02    9.8429742188e+04
    1.5259934589e-02    9.8391148438e+04
    1.5269872732e-02    9.8353289062e+04
    1.5279811807e-02    9.8316726562e+04
    1.5289749950e-02    9.8279007812e+04
    1.5299957246e-02    9.8240632812e+04
    1.5309895389e-02    9.8203281250e+04
    1.5319833532e-02    9.8165593750e+04
    1.5329772606e-02    9.8127960938e+04
    1.5339978971e-02    9.8089031250e+04
    1.5349917114e-02    9.8052820312e+04
    1.5359856188e-02    9.8016539062e+04
    1.5369794331e-02    9.7981976562e+04
    1.5379732475e-02    9.7946773438e+04
    1.5389939770e-02    9.7910335938e+04
    1.5399877913e-02    9.7873039062e+04
    1.5409816056e-02    9.7834437500e+04
    1.5419754200e-02    9.7795187500e+04
    1.5429960564e-02    9.7755585938e+04
    1.5439899638e-02    9.7718960938e+04
    1.5449837781e-02    9.7684554688e+04
    1.5459775925e-02    9.7652164062e+04
    1.5469983220e-02    9.7619875000e+04
    1.5479921363e-02    9.7587976562e+04
    1.5489860438e-02    9.7554562500e+04
    1.5499798581e-02    9.7519070312e+04
    1.5509737656e-02    9.7481664062e+04
    1.5519945882e-02    9.7442070312e+04
    1.5529884957e-02    9.7403445312e+04
    1.5539824031e-02    9.7365664062e+04
    1.5549764037e-02    9.7329250000e+04
    1.5559973195e-02    9.7293398438e+04
    1.5569913201e-02    9.7259835938e+04
    1.5579853207e-02    9.7226726562e+04
    1.5589793213e-02    9.7193117188e+04
    1.5599734150e-02    9.7159914062e+04
    1.5609943308e-02    9.7126304688e+04
    1.5619884245e-02    9.7092125000e+04
    1.5629826114e-02    9.7057968750e+04
    1.5639768913e-02    9.7024156250e+04
    1.5649978071e-02    9.6989656250e+04
    1.5659920871e-02    9.6955210938e+04
    1.5669861808e-02    9.6922023438e+04
    1.5679804608e-02    9.6889031250e+04
    1.5689749271e-02    9.6855968750e+04
    1.5699960291e-02    9.6821257812e+04
    1.5709904954e-02    9.6788000000e+04
    1.5719847754e-02    9.6754429688e+04
    1.5729792416e-02    9.6720476562e+04
    1.5739737079e-02    9.6686757812e+04
    1.5749949962e-02    9.6652429688e+04
    1.5759894624e-02    9.6618664062e+04
    1.5769841149e-02    9.6585414062e+04
    1.5779787675e-02    9.6551976562e+04
    1.5789734200e-02    9.6519054688e+04
    1.5799948946e-02    9.6485148438e+04
    1.5809895471e-02    9.6452570312e+04
    1.5819841996e-02    9.6419664062e+04
    1.5829790384e-02    9.6387226562e+04
    1.5839736909e-02    9.6354687500e+04
    1.5849955380e-02    9.6321593750e+04
    1.5859903768e-02    9.6289406250e+04
    1.5869852155e-02    9.6257289062e+04
    1.5879802406e-02    9.6225320312e+04
    1.5889754519e-02    9.6193523438e+04
    1.5899976715e-02    9.6161187500e+04
    1.5909928828e-02    9.6130070312e+04
    1.5919880942e-02    9.6099398438e+04
    1.5929833055e-02    9.6069125000e+04
    1.5939785168e-02    9.6039031250e+04
    1.5949737281e-02    9.6008867188e+04
    1.5959957615e-02    9.5977648438e+04
    1.5969909728e-02    9.5946914062e+04
    1.5979863703e-02    9.5915382812e+04
    1.5989815816e-02    9.5882492188e+04
    1.5999771655e-02    9.5849625000e+04
    1.6009995714e-02    9.5816664062e+04
    1.6019949690e-02    9.5783882812e+04
    1.6029903665e-02    9.5752523438e+04
    1.6039859504e-02    9.5723304688e+04
    1.6049817204e-02    9.5694500000e+04
    1.6059773043e-02    9.5665281250e+04
    1.6069998965e-02    9.5635531250e+04
    1.6079956666e-02    9.5605968750e+04
    1.6089916229e-02    9.5574476562e+04
    1.6099875793e-02    9.5542812500e+04
    1.6109835356e-02    9.5511093750e+04
    1.6119796783e-02    9.5479976562e+04
    1.6129758209e-02    9.5449039062e+04
    1.6139989719e-02    9.5418539062e+04
    1.6149954870e-02    9.5389593750e+04
    1.6159921885e-02    9.5360585938e+04
    1.6169888899e-02    9.5331726562e+04
    1.6179855913e-02    9.5302210938e+04
    1.6189826652e-02    9.5271929688e+04
    1.6199797392e-02    9.5241468750e+04
    1.6209768131e-02    9.5210523438e+04
    1.6219738871e-02    9.5180125000e+04
    1.6229981557e-02    9.5149351562e+04
    1.6239956021e-02    9.5120031250e+04
    1.6249930486e-02    9.5091468750e+04
    1.6259906814e-02    9.5062867188e+04
    1.6269883141e-02    9.5034226562e+04
    1.6279861331e-02    9.5004742188e+04
    1.6289843246e-02    9.4974617188e+04
    1.6299825162e-02    9.4944226562e+04
    1.6309808940e-02    9.4914210938e+04
    1.6319794580e-02    9.4885062500e+04
    1.6329780221e-02    9.4856687500e+04
    1.6339767724e-02    9.4828625000e+04
    1.6349758953e-02    9.4800210938e+04
    1.6359748319e-02    9.4771148438e+04
    1.6369741410e-02    9.4741601562e+04
    1.6379732639e-02    9.4711601562e+04
    1.6389997676e-02    9.4680976562e+04
    1.6399996355e-02    9.4652773438e+04
    1.6409995034e-02    9.4625148438e+04
    1.6419995576e-02    9.4596429688e+04
    1.6429997981e-02    9.4568218750e+04
    1.6439732164e-02    9.4540523438e+04
    1.6449736431e-02    9.4510835938e+04
    1.6459746286e-02    9.4481335938e+04
    1.6469754279e-02    9.4453242188e+04
    1.6479762271e-02    9.4425726562e+04
    1.6489775851e-02    9.4397437500e+04
    1.6499791294e-02    9.4369351562e+04
    1.6509808600e-02    9.4340851562e+04
    1.6519827768e-02    9.4312242188e+04
    1.6529845074e-02    9.4283023438e+04
    1.6539866105e-02    9.4255750000e+04
    1.6549892724e-02    9.4227789062e+04
    1.6559917480e-02    9.4200351562e+04
    1.6569945961e-02    9.4172429688e+04
    1.6579976305e-02    9.4143968750e+04
    1.6589732841e-02    9.4116304688e+04
    1.6599766910e-02    9.4088304688e+04
    1.6609804705e-02    9.4060679688e+04
    1.6619840637e-02    9.4033695312e+04
    1.6629882157e-02    9.4005968750e+04
    1.6639923677e-02    9.3978226562e+04
    1.6649965197e-02    9.3949937500e+04
    1.6659744084e-02    9.3922937500e+04
    1.6669789329e-02    9.3895617188e+04
    1.6679834574e-02    9.3868414062e+04
    1.6689889133e-02    9.3841312500e+04
    1.6699947417e-02    9.3813656250e+04
    1.6709733754e-02    9.3786835938e+04
    1.6719795763e-02    9.3759289062e+04
    1.6729854047e-02    9.3732054688e+04
    1.6739914194e-02    9.3705000000e+04
    1.6749983653e-02    9.3677835938e+04
    1.6759779304e-02    9.3651460938e+04
    1.6769848764e-02    9.3624273438e+04
    1.6779920086e-02    9.3596742188e+04
    1.6789987683e-02    9.3569750000e+04
    1.6799787059e-02    9.3544210938e+04
    1.6809867695e-02    9.3517007812e+04
    1.6819946468e-02    9.3489476562e+04
    1.6829757020e-02    9.3463960938e+04
    1.6839843243e-02    9.3437273438e+04
    1.6849927604e-02    9.3410164062e+04
    1.6859745607e-02    9.3384492188e+04
    1.6869839281e-02    9.3358593750e+04
    1.6879929230e-02    9.3331726562e+04
    1.6889754683e-02    9.3305531250e+04
    1.6899855807e-02    9.3279210938e+04
    1.6909956932e-02    9.3252554688e+04
    1.6919787973e-02    9.3226531250e+04
    1.6929892823e-02    9.3199468750e+04
    1.6939995810e-02    9.3172539062e+04
    1.6949834302e-02    9.3146210938e+04
    1.6959946603e-02    9.3120460938e+04
    1.6969786957e-02    9.3094929688e+04
    1.6979904845e-02    9.3069773438e+04
    1.6989747062e-02    9.3044812500e+04
    1.6999863088e-02    9.3019320312e+04
    1.7009990290e-02    9.2993687500e+04
    1.7019841820e-02    9.2968960938e+04
    1.7029969022e-02    9.2942851562e+04
    1.7039828002e-02    9.2917476562e+04
    1.7049957067e-02    9.2891132812e+04
    1.7059816048e-02    9.2865914062e+04
    1.7069954425e-02    9.2839843750e+04
    1.7079817131e-02    9.2814773438e+04
    1.7089959234e-02    9.2789085938e+04
    1.7099831253e-02    9.2764000000e+04
    1.7109975219e-02    9.2738468750e+04
    1.7119849101e-02    9.2713656250e+04
    1.7130000517e-02    9.2688164062e+04
    1.7139874399e-02    9.2663351562e+04
    1.7149753869e-02    9.2638585938e+04
    1.7159914598e-02    9.2613257812e+04
    1.7169797793e-02    9.2588414062e+04
    1.7179962248e-02    9.2562914062e+04
    1.7189852893e-02    9.2538851562e+04
    1.7199741676e-02    9.2514781250e+04
    1.7209911719e-02    9.2489460938e+04
    1.7219809815e-02    9.2465773438e+04
    1.7229983583e-02    9.2441757812e+04
    1.7239887267e-02    9.2417414062e+04
    1.7249790952e-02    9.2393445312e+04
    1.7259972170e-02    9.2369460938e+04
    1.7269883305e-02    9.2346132812e+04
    1.7279794440e-02    9.2321476562e+04
    1.7289983109e-02    9.2296898438e+04
    1.7299899831e-02    9.2272687500e+04
    1.7309818417e-02    9.2248101562e+04
    1.7319737002e-02    9.2223976562e+04
    1.7329936847e-02    9.2199343750e+04
    1.7339861020e-02    9.2175460938e+04
    1.7349788919e-02    9.2151882812e+04
    1.7359998077e-02    9.2128062500e+04
    1.7369931564e-02    9.2104968750e+04
    1.7379866913e-02    9.2082429688e+04
    1.7389807850e-02    9.2059312500e+04
    1.7399748787e-02    9.2036437500e+04
    1.7409970984e-02    9.2012343750e+04
    1.7419921234e-02    9.1989226562e+04
    1.7429873347e-02    9.1965617188e+04
    1.7439827323e-02    9.1942468750e+04
    1.7449785024e-02    9.1919062500e+04
    1.7459742725e-02    9.1896125000e+04
    1.7469979823e-02    9.1872492188e+04
    1.7479944974e-02    9.1849773438e+04
    1.7489910126e-02    9.1827351562e+04
    1.7499879003e-02    9.1804835938e+04
    1.7509849742e-02    9.1782554688e+04
    1.7519824207e-02    9.1760085938e+04
    1.7529796809e-02    9.1737429688e+04
    1.7539774999e-02    9.1714812500e+04
    1.7549753189e-02    9.1692562500e+04
    1.7559733242e-02    9.1670250000e+04
    1.7569994554e-02    9.1646976562e+04
    1.7579976469e-02    9.1625039062e+04
    1.7589963973e-02    9.1603250000e+04
    1.7599951476e-02    9.1580789062e+04
    1.7609940842e-02    9.1558960938e+04
    1.7619932070e-02    9.1537539062e+04
    1.7629927024e-02    9.1515593750e+04
    1.7639920115e-02    9.1493132812e+04
    1.7649916932e-02    9.1471710938e+04
    1.7659917474e-02    9.1450414062e+04
    1.7669918016e-02    9.1428164062e+04
    1.7679924145e-02    9.1406718750e+04
    1.7689930275e-02    9.1385539062e+04
    1.7699934542e-02    9.1364210938e+04
    1.7709936947e-02    9.1342914062e+04
    1.7719933763e-02    9.1321960938e+04
    1.7729923129e-02    9.1300687500e+04
    1.7739906907e-02    9.1279570312e+04
    1.7749886960e-02    9.1258718750e+04
    1.7759863287e-02    9.1237648438e+04
    1.7769837752e-02    9.1217085938e+04
    1.7779935151e-02    9.1195968750e+04
    1.7789922655e-02    9.1175531250e+04
    1.7799787223e-02    9.1155039062e+04
    1.7809810117e-02    9.1134445312e+04
    1.7819983885e-02    9.1113460938e+04
    1.7829703167e-02    9.1093617188e+04
    1.7839869484e-02    9.1072945312e+04
    1.7849860713e-02    9.1052687500e+04
    1.7859986052e-02    9.1032226562e+04
    1.7869926989e-02    9.1012257812e+04
    1.7879998311e-02    9.0991960938e+04
    1.7889859155e-02    9.0972382812e+04
    1.7899837345e-02    9.0952445312e+04
    1.7909938470e-02    9.0932500000e+04
    1.7919812351e-02    9.0912835938e+04
    1.7929799855e-02    9.0893132812e+04
    1.7939895391e-02    9.0873601562e+04
    1.7949743196e-02    9.0854414062e+04
    1.7959699035e-02    9.0834781250e+04
    1.7969759181e-02    9.0815476562e+04
    1.7979906872e-02    9.0796320312e+04
    1.7989790067e-02    9.0776875000e+04
    1.7999768257e-02    9.0757500000e+04
    1.8009822816e-02    9.0738726562e+04
    1.8019961193e-02    9.0719500000e+04
    1.8029790372e-02    9.0700414062e+04
    1.8039673567e-02    9.0681789062e+04
    1.8049959093e-02    9.0663093750e+04
    1.8059782684e-02    9.0644226562e+04
    1.8069749698e-02    9.0625476562e+04
    1.8079960719e-02    9.0606789062e+04
    1.8089918420e-02    9.0588304688e+04
    1.8099887297e-02    9.0569539062e+04
    1.8109865487e-02    9.0551726562e+04
    1.8119854853e-02    9.0533289062e+04
    1.8129860982e-02    9.0515164062e+04
    1.8139885738e-02    9.0497101562e+04
    1.8149925396e-02    9.0478851562e+04
    1.8159968778e-02    9.0460851562e+04
    1.8169762567e-02    9.0443554688e+04
    1.8179818988e-02    9.0425601562e+04
    1.8189884722e-02    9.0408000000e+04
    1.8199956045e-02    9.0389976562e+04
    1.8209772184e-02    9.0372742188e+04
    1.8219849095e-02    9.0354812500e+04
    1.8229926005e-02    9.0337226562e+04
    1.8239749596e-02    9.0320164062e+04
    1.8249832094e-02    9.0302835938e+04
    1.8259916455e-02    9.0285445312e+04
    1.8269749358e-02    9.0268539062e+04
    1.8279846758e-02    9.0251085938e+04
    1.8289955333e-02    9.0233835938e+04
    1.8299810588e-02    9.0216960938e+04
    1.8309934065e-02    9.0199648438e+04
    1.8319806084e-02    9.0182820312e+04
    1.8329944462e-02    9.0165835938e+04
    1.8339829519e-02    9.0149304688e+04
    1.8349980935e-02    9.0132101562e+04
    1.8359879032e-02    9.0115914062e+04
    1.8369784579e-02    9.0099992188e+04
    1.8379954621e-02    9.0082875000e+04
    1.8389871344e-02    9.0066476562e+04
    1.8399793655e-02    9.0050851562e+04
    1.8409982324e-02    9.0034460938e+04
    1.8419915810e-02    9.0018132812e+04
    1.8429854885e-02    9.0002289062e+04
    1.8439797685e-02    8.9987031250e+04
    1.8449755386e-02    8.9970976562e+04
    1.8459979445e-02    8.9954593750e+04
    1.8469953910e-02    8.9939257812e+04
    1.8479939550e-02    8.9923679688e+04
    1.8489938229e-02    8.9907789062e+04
    1.8499951810e-02    8.9892148438e+04
    1.8509980291e-02    8.9876781250e+04
    1.8519753590e-02    8.9861625000e+04
    1.8529796973e-02    8.9846218750e+04
    1.8539849669e-02    8.9831093750e+04
    1.8549913540e-02    8.9815882812e+04
    1.8559997901e-02    8.9800625000e+04
    1.8569843844e-02    8.9785835938e+04
    1.8579982221e-02    8.9770617188e+04
    1.8589869142e-02    8.9755937500e+04
    1.8599763513e-02    8.9741507812e+04
    1.8609939143e-02    8.9726398438e+04
    1.8619852141e-02    8.9712000000e+04
    1.8629772589e-02    8.9697335938e+04
    1.8639972433e-02    8.9682789062e+04
    1.8649937585e-02    8.9668648438e+04
    1.8659938127e-02    8.9654898438e+04
    1.8669966608e-02    8.9641164062e+04
    1.8679738045e-02    8.9627937500e+04
    1.8689794466e-02    8.9614304688e+04
    1.8699858338e-02    8.9600742188e+04
    1.8709929660e-02    8.9586898438e+04
    1.8719747663e-02    8.9573414062e+04
    1.8729854375e-02    8.9559335938e+04
    1.8739979714e-02    8.9545601562e+04
    1.8749849871e-02    8.9532617188e+04
    1.8759746104e-02    8.9520007812e+04
    1.8769944087e-02    8.9506367188e+04
    1.8779881299e-02    8.9492718750e+04
    1.8789831549e-02    8.9479960938e+04
    1.8799789250e-02    8.9467226562e+04
    1.8809761852e-02    8.9453789062e+04
    1.8819747493e-02    8.9441148438e+04
    1.8829751760e-02    8.9428648438e+04
    1.8839765340e-02    8.9415164062e+04
    1.8849788234e-02    8.9402460938e+04
    1.8859822303e-02    8.9390156250e+04
    1.8869880587e-02    8.9377539062e+04
    1.8879961222e-02    8.9364710938e+04
    1.8889775500e-02    8.9352523438e+04
    1.8899876624e-02    8.9340406250e+04
    1.8909985200e-02    8.9327867188e+04
    1.8919827417e-02    8.9315914062e+04
    1.8929960206e-02    8.9303757812e+04
    1.8939822912e-02    8.9292054688e+04
    1.8949981779e-02    8.9279968750e+04
    1.8959870562e-02    8.9268414062e+04
    1.8969768658e-02    8.9256648438e+04
    1.8979961053e-02    8.9244789062e+04
    1.8989879638e-02    8.9233257812e+04
    1.8999803811e-02    8.9221718750e+04
    1.9009729847e-02    8.9210242188e+04
    1.9019953907e-02    8.9198367188e+04
    1.9029911608e-02    8.9186914062e+04
    1.9039878622e-02    8.9175585938e+04
    1.9049853086e-02    8.9164304688e+04
    1.9059833139e-02    8.9153101562e+04
    1.9069822505e-02    8.9141914062e+04
    1.9079815596e-02    8.9130945312e+04
    1.9089810550e-02    8.9120070312e+04
    1.9099807367e-02    8.9109414062e+04
    1.9109807909e-02    8.9098820312e+04
    1.9119812176e-02    8.9088148438e+04
    1.9129829481e-02    8.9077406250e+04
    1.9139859825e-02    8.9066945312e+04
    1.9149892032e-02    8.9056835938e+04
    1.9159929827e-02    8.9046289062e+04
    1.9169965759e-02    8.9035718750e+04
    1.9179722294e-02    8.9026125000e+04
    1.9189769402e-02    8.9016164062e+04
    1.9199818373e-02    8.9005437500e+04
    1.9209869206e-02    8.8995492188e+04
    1.9219921902e-02    8.8985914062e+04
    1.9229980186e-02    8.8975468750e+04
    1.9239755347e-02    8.8965757812e+04
    1.9249826670e-02    8.8956289062e+04
    1.9259901717e-02    8.8946476562e+04
    1.9269976765e-02    8.8936570312e+04
    1.9279766828e-02    8.8927429688e+04
    1.9289845601e-02    8.8918093750e+04
    1.9299926236e-02    8.8908617188e+04
    1.9309721887e-02    8.8899679688e+04
    1.9319804385e-02    8.8890507812e+04
    1.9329888746e-02    8.8881406250e+04
    1.9339973107e-02    8.8872179688e+04
    1.9349770620e-02    8.8863539062e+04
    1.9359854981e-02    8.8854312500e+04
    1.9369937479e-02    8.8845476562e+04
    1.9379734993e-02    8.8836851562e+04
    1.9389819354e-02    8.8828164062e+04
    1.9399903715e-02    8.8819476562e+04
    1.9409989938e-02    8.8810898438e+04
    1.9419787452e-02    8.8802601562e+04
    1.9429873675e-02    8.8794273438e+04
    1.9439959899e-02    8.8785835938e+04
[...]
    1.1513994634e-01    1.0121550000e+05
    1.1514990032e-01    1.0121549219e+05
    1.1515986174e-01    1.0121549219e+05
    1.1516981572e-01    1.0121547656e+05
    1.1517976969e-01    1.0121547656e+05
    1.1518973112e-01    1.0121547656e+05
    1.1519999802e-01    1.0121546875e+05
    1.1520995200e-01    1.0121546875e+05
    1.1521991342e-01    1.0121546875e+05
    1.1522986740e-01    1.0121546094e+05
    1.1523982137e-01    1.0121546094e+05
    1.1524978280e-01    1.0121546094e+05
    1.1525973678e-01    1.0121546094e+05
    1.1526969820e-01    1.0121546094e+05
    1.1527996510e-01    1.0121544531e+05
    1.1528991908e-01    1.0121544531e+05
    1.1529988050e-01    1.0121543750e+05
    1.1530983448e-01    1.0121542969e+05
    1.1531978846e-01    1.0121542969e+05
    1.1532974988e-01    1.0121541406e+05
    1.1533970386e-01    1.0121541406e+05
    1.1534997076e-01    1.0121541406e+05
    1.1535993218e-01    1.0121541406e+05
    1.1536988616e-01    1.0121540625e+05
    1.1537984759e-01    1.0121539844e+05
    1.1538980156e-01    1.0121539844e+05
    1.1539975554e-01    1.0121539844e+05
    1.1540971696e-01    1.0121538281e+05
    1.1541998386e-01    1.0121538281e+05
    1.1542993784e-01    1.0121537500e+05
    1.1543989927e-01    1.0121537500e+05
    1.1544985324e-01    1.0121536719e+05
    1.1545981467e-01    1.0121536719e+05
    1.1546976864e-01    1.0121535156e+05
    1.1547972262e-01    1.0121535156e+05
    1.1548999697e-01    1.0121535156e+05
    1.1549995095e-01    1.0121535156e+05
    1.1550990492e-01    1.0121535156e+05
    1.1551986635e-01    1.0121534375e+05
    1.1552982032e-01    1.0121534375e+05
    1.1553978175e-01    1.0121533594e+05
    1.1554973572e-01    1.0121533594e+05
    1.1555968970e-01    1.0121533594e+05
    1.1556996405e-01    1.0121533594e+05
    1.1557991803e-01    1.0121532031e+05
    1.1558987200e-01    1.0121532031e+05
    1.1559983343e-01    1.0121531250e+05
    1.1560978740e-01    1.0121531250e+05
    1.1561974883e-01    1.0121530469e+05
    1.1562970281e-01    1.0121530469e+05
    1.1563996971e-01    1.0121528906e+05
    1.1564993113e-01    1.0121528906e+05
    1.1565988511e-01    1.0121528906e+05
    1.1566983908e-01    1.0121528906e+05
    1.1567980051e-01    1.0121528125e+05
    1.1568975449e-01    1.0121527344e+05
    1.1569971591e-01    1.0121527344e+05
    1.1570998281e-01    1.0121527344e+05
    1.1571993679e-01    1.0121527344e+05
    1.1572989821e-01    1.0121525781e+05
    1.1573985219e-01    1.0121525781e+05
    1.1574980617e-01    1.0121525000e+05
    1.1575976759e-01    1.0121525000e+05
    1.1576972157e-01    1.0121524219e+05
    1.1577998847e-01    1.0121524219e+05
    1.1578994989e-01    1.0121524219e+05
    1.1579990387e-01    1.0121522656e+05
    1.1580986530e-01    1.0121522656e+05
    1.1581981927e-01    1.0121522656e+05
    1.1582977325e-01    1.0121522656e+05
    1.1583973467e-01    1.0121521875e+05
    1.1584968865e-01    1.0121521875e+05
    1.1585995555e-01    1.0121521094e+05
    1.1586991698e-01    1.0121521094e+05
    1.1587987095e-01    1.0121521094e+05
    1.1588983238e-01    1.0121519531e+05
    1.1589978635e-01    1.0121519531e+05
    1.1590974033e-01    1.0121518750e+05
    1.1591970176e-01    1.0121518750e+05
    1.1592996866e-01    1.0121517969e+05
    1.1593992263e-01    1.0121517969e+05
    1.1594988406e-01    1.0121516406e+05
    1.1595983803e-01    1.0121516406e+05
    1.1596979946e-01    1.0121516406e+05
    1.1597975343e-01    1.0121516406e+05
    1.1598970741e-01    1.0121516406e+05
    1.1599998176e-01    1.0121515625e+05
    1.1600993574e-01    1.0121515625e+05
    1.1601988971e-01    1.0121514844e+05
    1.1602985114e-01    1.0121514844e+05
    1.1603980511e-01    1.0121514844e+05
    1.1604976654e-01    1.0121513281e+05
    1.1605972052e-01    1.0121513281e+05
    1.1606998742e-01    1.0121512500e+05
    1.1607994884e-01    1.0121512500e+05
    1.1608990282e-01    1.0121511719e+05
    1.1609985679e-01    1.0121511719e+05
    1.1610981822e-01    1.0121510156e+05
    1.1611977220e-01    1.0121510156e+05
    1.1612973362e-01    1.0121510156e+05
    1.1614000052e-01    1.0121510156e+05
    1.1614995450e-01    1.0121509375e+05
    1.1615991592e-01    1.0121509375e+05
    1.1616986990e-01    1.0121508594e+05
    1.1617982388e-01    1.0121508594e+05
    1.1618978530e-01    1.0121508594e+05
    1.1619973928e-01    1.0121508594e+05
    1.1620970070e-01    1.0121507031e+05
    1.1621996760e-01    1.0121507031e+05
    1.1622992158e-01    1.0121506250e+05
    1.1623988301e-01    1.0121506250e+05
    1.1624983698e-01    1.0121505469e+05
    1.1625979096e-01    1.0121503906e+05
    1.1626975238e-01    1.0121503906e+05
    1.1627970636e-01    1.0121503906e+05
    1.1628997326e-01    1.0121503906e+05
    1.1629993469e-01    1.0121503906e+05
    1.1630988866e-01    1.0121503125e+05
    1.1631985009e-01    1.0121503125e+05
    1.1632980406e-01    1.0121502344e+05
    1.1633975804e-01    1.0121502344e+05
    1.1634971946e-01    1.0121502344e+05
    1.1635998636e-01    1.0121502344e+05
    1.1636994034e-01    1.0121500781e+05
    1.1637990177e-01    1.0121500781e+05
    1.1638985574e-01    1.0121500000e+05
    1.1639981717e-01    1.0121500000e+05
    1.1640977114e-01    1.0121499219e+05
    1.1641972512e-01    1.0121499219e+05
    1.1642999947e-01    1.0121497656e+05
    1.1643995345e-01    1.0121497656e+05
    1.1644990742e-01    1.0121497656e+05
    1.1645986885e-01    1.0121497656e+05
    1.1646982282e-01    1.0121496875e+05
    1.1647978425e-01    1.0121496875e+05
    1.1648973823e-01    1.0121496094e+05
    1.1649969220e-01    1.0121496094e+05
    1.1650996655e-01    1.0121496094e+05
    1.1651992053e-01    1.0121496094e+05
    1.1652987450e-01    1.0121494531e+05
    1.1653983593e-01    1.0121493750e+05
    1.1654978991e-01    1.0121493750e+05
    1.1655975133e-01    1.0121492969e+05
    1.1656970531e-01    1.0121492969e+05
    1.1657997221e-01    1.0121492969e+05
    1.1658993363e-01    1.0121491406e+05
    1.1659988761e-01    1.0121491406e+05
    1.1660984159e-01    1.0121491406e+05
    1.1661980301e-01    1.0121491406e+05
    1.1662975699e-01    1.0121490625e+05
    1.1663971841e-01    1.0121490625e+05
    1.1664998531e-01    1.0121489844e+05
    1.1665993929e-01    1.0121489844e+05
    1.1666990072e-01    1.0121489844e+05
    1.1667985469e-01    1.0121489844e+05
    1.1668980867e-01    1.0121488281e+05
    1.1669977009e-01    1.0121488281e+05
    1.1670972407e-01    1.0121487500e+05
    1.1671999097e-01    1.0121487500e+05
    1.1672995239e-01    1.0121486719e+05
    1.1673990637e-01    1.0121486719e+05
    1.1674986780e-01    1.0121485156e+05
    1.1675982177e-01    1.0121485156e+05
    1.1676978320e-01    1.0121485156e+05
    1.1677973717e-01    1.0121485156e+05
    1.1678969115e-01    1.0121485156e+05
    1.1679995805e-01    1.0121484375e+05
    1.1680991948e-01    1.0121484375e+05
    1.1681987345e-01    1.0121483594e+05
    1.1682983488e-01    1.0121483594e+05
    1.1683978885e-01    1.0121483594e+05
    1.1684975028e-01    1.0121483594e+05
    1.1685970426e-01    1.0121482031e+05
    1.1686997116e-01    1.0121482031e+05
    1.1687992513e-01    1.0121481250e+05
    1.1688988656e-01    1.0121481250e+05
    1.1689984053e-01    1.0121480469e+05
    1.1690980196e-01    1.0121480469e+05
    1.1691975594e-01    1.0121478906e+05
    1.1692971736e-01    1.0121478906e+05
    1.1693998426e-01    1.0121478906e+05
    1.1694993824e-01    1.0121478906e+05
    1.1695989966e-01    1.0121478125e+05
    1.1696985364e-01    1.0121478125e+05
    1.1697980762e-01    1.0121477344e+05
    1.1698976904e-01    1.0121477344e+05
    1.1699972302e-01    1.0121477344e+05
    1.1700998992e-01    1.0121477344e+05
    1.1701995134e-01    1.0121475781e+05
    1.1702990532e-01    1.0121475781e+05
    1.1703986675e-01    1.0121475000e+05
    1.1704982072e-01    1.0121475000e+05
    1.1705977470e-01    1.0121474219e+05
    1.1706973612e-01    1.0121474219e+05
    1.1707969010e-01    1.0121472656e+05
    1.1708995700e-01    1.0121472656e+05
    1.1709991843e-01    1.0121472656e+05
    1.1710987240e-01    1.0121472656e+05
    1.1711983383e-01    1.0121471875e+05
    1.1712978780e-01    1.0121471875e+05
    1.1713974178e-01    1.0121471094e+05
    1.1714970320e-01    1.0121471094e+05
    1.1715997010e-01    1.0121471094e+05
    1.1716992408e-01    1.0121471094e+05
    1.1717988551e-01    1.0121469531e+05
    1.1718983948e-01    1.0121469531e+05
    1.1719980091e-01    1.0121468750e+05
    1.1720975488e-01    1.0121468750e+05
    1.1721970886e-01    1.0121467969e+05
    1.1722998321e-01    1.0121467969e+05
    1.1723993719e-01    1.0121466406e+05
    1.1724989116e-01    1.0121466406e+05
    1.1725985259e-01    1.0121466406e+05
    1.1726980656e-01    1.0121466406e+05
    1.1727976799e-01    1.0121465625e+05
    1.1728972197e-01    1.0121465625e+05
    1.1729998887e-01    1.0121464844e+05
    1.1730995029e-01    1.0121464844e+05
    1.1731990427e-01    1.0121464844e+05
    1.1732985824e-01    1.0121464844e+05
    1.1733981967e-01    1.0121464844e+05
    1.1734977365e-01    1.0121463281e+05
    1.1735973507e-01    1.0121463281e+05
    1.1737000197e-01    1.0121462500e+05
    1.1737995595e-01    1.0121462500e+05
    1.1738991737e-01    1.0121462500e+05
    1.1739987135e-01    1.0121461719e+05
    1.1740982533e-01    1.0121461719e+05
    1.1741978675e-01    1.0121460156e+05
    1.1742974073e-01    1.0121460156e+05
    1.1743970215e-01    1.0121460156e+05
    1.1744996905e-01    1.0121460156e+05
    1.1745992303e-01    1.0121459375e+05
    1.1746988446e-01    1.0121459375e+05
    1.1747983843e-01    1.0121458594e+05
    1.1748979241e-01    1.0121458594e+05
    1.1749975383e-01    1.0121458594e+05
    1.1750970781e-01    1.0121458594e+05
    1.1751997471e-01    1.0121457031e+05
    1.1752993613e-01    1.0121457031e+05
    1.1753989011e-01    1.0121457031e+05
    1.1754985154e-01    1.0121456250e+05
    1.1755980551e-01    1.0121455469e+05
    1.1756975949e-01    1.0121455469e+05
    1.1757972091e-01    1.0121453906e+05
    1.1758998781e-01    1.0121453906e+05
    1.1759994179e-01    1.0121453906e+05
    1.1760990322e-01    1.0121453906e+05
    1.1761985719e-01    1.0121453125e+05
    1.1762981862e-01    1.0121453125e+05
    1.1763977259e-01    1.0121452344e+05
    1.1764972657e-01    1.0121452344e+05
    1.1766000092e-01    1.0121452344e+05
    1.1766995490e-01    1.0121452344e+05
    1.1767990887e-01    1.0121452344e+05
    1.1768987030e-01    1.0121450781e+05
    1.1769982427e-01    1.0121450781e+05
    1.1770978570e-01    1.0121450000e+05
    1.1771973968e-01    1.0121449219e+05
    1.1772969365e-01    1.0121449219e+05
    1.1773996800e-01    1.0121447656e+05
    1.1774992198e-01    1.0121447656e+05
    1.1775987595e-01    1.0121447656e+05
    1.1776983738e-01    1.0121447656e+05
    1.1777979136e-01    1.0121446875e+05
    1.1778975278e-01    1.0121446875e+05
    1.1779970676e-01    1.0121446875e+05
    1.1780997366e-01    1.0121446094e+05
    1.1781993508e-01    1.0121446094e+05
    1.1782988906e-01    1.0121446094e+05
    1.1783984303e-01    1.0121446094e+05
    1.1784980446e-01    1.0121446094e+05
    1.1785975844e-01    1.0121444531e+05
    1.1786971986e-01    1.0121444531e+05
    1.1787998676e-01    1.0121443750e+05
    1.1788994074e-01    1.0121442969e+05
    1.1789990216e-01    1.0121442969e+05
    1.1790985614e-01    1.0121441406e+05
    1.1791981012e-01    1.0121441406e+05
    1.1792977154e-01    1.0121440625e+05
    1.1793972552e-01    1.0121440625e+05
    1.1794999242e-01    1.0121439844e+05
    1.1795995384e-01    1.0121439844e+05
    1.1796990782e-01    1.0121439844e+05
    1.1797986925e-01    1.0121439844e+05
    1.1798982322e-01    1.0121439844e+05
    1.1799977720e-01    1.0121439844e+05
    1.1800973862e-01    1.0121439844e+05
    1.1801969260e-01    1.0121438281e+05
    1.1802995950e-01    1.0121438281e+05
    1.1803992093e-01    1.0121437500e+05
    1.1804987490e-01    1.0121437500e+05
    1.1805983633e-01    1.0121436719e+05
    1.1806979030e-01    1.0121436719e+05
    1.1807974428e-01    1.0121436719e+05
    1.1808970571e-01    1.0121435156e+05
    1.1809997261e-01    1.0121435156e+05
    1.1810992658e-01    1.0121435156e+05
    1.1811988801e-01    1.0121435156e+05
    1.1812984198e-01    1.0121435156e+05
    1.1813980341e-01    1.0121435156e+05
    1.1814975739e-01    1.0121435156e+05
    1.1815971136e-01    1.0121435156e+05
    1.1816998571e-01    1.0121434375e+05
    1.1817993969e-01    1.0121434375e+05
    1.1818989366e-01    1.0121433594e+05
    1.1819985509e-01    1.0121433594e+05
    1.1820980906e-01    1.0121432031e+05
    1.1821977049e-01    1.0121431250e+05
    1.1822972447e-01    1.0121431250e+05
    1.1823999137e-01    1.0121430469e+05
    1.1824995279e-01    1.0121428906e+05
    1.1825990677e-01    1.0121428906e+05
    1.1826986820e-01    1.0121428906e+05
    1.1827982217e-01    1.0121428906e+05
    1.1828977615e-01    1.0121428906e+05
    1.1829973757e-01    1.0121428906e+05
    1.1830969155e-01    1.0121428125e+05
    1.1831995845e-01    1.0121428125e+05
    1.1832991987e-01    1.0121427344e+05
    1.1833987385e-01    1.0121427344e+05
    1.1834983528e-01    1.0121427344e+05
    1.1835978925e-01    1.0121425781e+05
    1.1836974323e-01    1.0121425000e+05
    1.1837970465e-01    1.0121425000e+05
    1.1838997155e-01    1.0121424219e+05
    1.1839992553e-01    1.0121424219e+05
    1.1840988696e-01    1.0121422656e+05
    1.1841984093e-01    1.0121422656e+05
    1.1842980236e-01    1.0121422656e+05
    1.1843975633e-01    1.0121422656e+05
    1.1844971031e-01    1.0121422656e+05
    1.1845998466e-01    1.0121422656e+05
    1.1846993864e-01    1.0121422656e+05
    1.1847989261e-01    1.0121422656e+05
    1.1848985404e-01    1.0121422656e+05
    1.1849980801e-01    1.0121421875e+05
    1.1850976944e-01    1.0121421875e+05
    1.1851972342e-01    1.0121421094e+05
    1.1852999032e-01    1.0121421094e+05
    1.1853995174e-01    1.0121421094e+05
    1.1854990572e-01    1.0121419531e+05
    1.1855985969e-01    1.0121419531e+05
    1.1856982112e-01    1.0121418750e+05
    1.1857977509e-01    1.0121417969e+05
    1.1858973652e-01    1.0121417969e+05
    1.1859969050e-01    1.0121416406e+05
    1.1860995740e-01    1.0121416406e+05
    1.1861991882e-01    1.0121415625e+05
    1.1862987280e-01    1.0121415625e+05
    1.1863982677e-01    1.0121414844e+05
    1.1864978820e-01    1.0121414844e+05
    1.1865974218e-01    1.0121414844e+05
    1.1866970360e-01    1.0121414844e+05
    1.1867997050e-01    1.0121414844e+05
    1.1868992448e-01    1.0121414844e+05
    1.1869988590e-01    1.0121414844e+05
    1.1870983988e-01    1.0121414844e+05
    1.1871979386e-01    1.0121414844e+05
    1.1872975528e-01    1.0121414844e+05
    1.1873970926e-01    1.0121413281e+05
    1.1874997616e-01    1.0121413281e+05
    1.1875993758e-01    1.0121412500e+05
    1.1876989156e-01    1.0121411719e+05
    1.1877985299e-01    1.0121410156e+05
    1.1878980696e-01    1.0121410156e+05
    1.1879976839e-01    1.0121409375e+05
    1.1880972236e-01    1.0121408594e+05
    1.1881998926e-01    1.0121408594e+05
    1.1882995069e-01    1.0121408594e+05
    1.1883990467e-01    1.0121408594e+05
    1.1884985864e-01    1.0121408594e+05
    1.1885982007e-01    1.0121408594e+05
    1.1886977404e-01    1.0121408594e+05
    1.1887973547e-01    1.0121408594e+05
    1.1888968945e-01    1.0121408594e+05
    1.1889995635e-01    1.0121408594e+05
    1.1890991777e-01    1.0121407031e+05
    1.1891987175e-01    1.0121407031e+05
    1.1892982572e-01    1.0121406250e+05
    1.1893978715e-01    1.0121405469e+05
    1.1894974113e-01    1.0121403906e+05
    1.1895970255e-01    1.0121403906e+05
    1.1896996945e-01    1.0121403906e+05
    1.1897992343e-01    1.0121403906e+05
    1.1898988485e-01    1.0121403125e+05
    1.1899983883e-01    1.0121403125e+05
    1.1900979280e-01    1.0121402344e+05
    1.1901975423e-01    1.0121402344e+05
    1.1902970821e-01    1.0121402344e+05
    1.1903997511e-01    1.0121402344e+05
    1.1904993653e-01    1.0121402344e+05
    1.1905989051e-01    1.0121402344e+05
    1.1906985193e-01    1.0121400781e+05
    1.1907980591e-01    1.0121400781e+05
    1.1908976734e-01    1.0121400000e+05
    1.1909972131e-01    1.0121400000e+05
    1.1910998821e-01    1.0121399219e+05
    1.1911994964e-01    1.0121399219e+05
    1.1912990361e-01    1.0121399219e+05
    1.1913985759e-01    1.0121397656e+05
    1.1914981902e-01    1.0121397656e+05
    1.1915977299e-01    1.0121397656e+05
    1.1916973442e-01    1.0121397656e+05
    1.1918000132e-01    1.0121396875e+05
    1.1918995529e-01    1.0121396875e+05
    1.1919991672e-01    1.0121396094e+05
    1.1920987070e-01    1.0121396094e+05
    1.1921982467e-01    1.0121396094e+05
    1.1922978610e-01    1.0121396094e+05
    1.1923974007e-01    1.0121396094e+05
    1.1924970150e-01    1.0121394531e+05
    1.1925996840e-01    1.0121393750e+05
    1.1926992238e-01    1.0121393750e+05
    1.1927988380e-01    1.0121392969e+05
    1.1928983778e-01    1.0121392969e+05
    1.1929979920e-01    1.0121391406e+05
    1.1930975318e-01    1.0121391406e+05
    1.1931970716e-01    1.0121391406e+05
    1.1932998151e-01    1.0121391406e+05
    1.1933993548e-01    1.0121391406e+05
    1.1934988946e-01    1.0121391406e+05
    1.1935985088e-01    1.0121390625e+05
    1.1936980486e-01    1.0121390625e+05
    1.1937976629e-01    1.0121390625e+05
    1.1938972026e-01    1.0121389844e+05
    1.1939998716e-01    1.0121389844e+05
    1.1940994859e-01    1.0121389844e+05
    1.1941990256e-01    1.0121389844e+05
    1.1942985654e-01    1.0121388281e+05
    1.1943981797e-01    1.0121387500e+05
    1.1944977194e-01    1.0121387500e+05
    1.1945973337e-01    1.0121386719e+05
    1.1947000027e-01    1.0121386719e+05
    1.1947995424e-01    1.0121386719e+05
    1.1948991567e-01    1.0121385156e+05
    1.1949986964e-01    1.0121385156e+05
    1.1950982362e-01    1.0121385156e+05
    1.1951978505e-01    1.0121385156e+05
    1.1952973902e-01    1.0121384375e+05
    1.1953970045e-01    1.0121384375e+05
    1.1954996735e-01    1.0121383594e+05
    1.1955992132e-01    1.0121383594e+05
    1.1956988275e-01    1.0121383594e+05
    1.1957983673e-01    1.0121383594e+05
    1.1958979815e-01    1.0121383594e+05
    1.1959975213e-01    1.0121382031e+05
    1.1960970610e-01    1.0121382031e+05
    1.1961998045e-01    1.0121381250e+05
    1.1962993443e-01    1.0121381250e+05
    1.1963988841e-01    1.0121380469e+05
    1.1964984983e-01    1.0121380469e+05
    1.1965980381e-01    1.0121380469e+05
    1.1966976523e-01    1.0121378906e+05
    1.1967971921e-01    1.0121378906e+05
    1.1968998611e-01    1.0121378906e+05
    1.1969994754e-01    1.0121378906e+05
    1.1970990151e-01    1.0121378906e+05
    1.1971985549e-01    1.0121378125e+05
    1.1972981691e-01    1.0121378125e+05
    1.1973977089e-01    1.0121377344e+05
    1.1974973232e-01    1.0121377344e+05
    1.1975999922e-01    1.0121377344e+05
    1.1976995319e-01    1.0121377344e+05
    1.1977991462e-01    1.0121375781e+05
    1.1978986859e-01    1.0121375781e+05
    1.1979983002e-01    1.0121375000e+05
    1.1980978400e-01    1.0121375000e+05
    1.1981973797e-01    1.0121374219e+05
    1.1982969940e-01    1.0121374219e+05
    1.1983996630e-01    1.0121374219e+05
    1.1984992027e-01    1.0121372656e+05
    1.1985988170e-01    1.0121372656e+05
    1.1986983567e-01    1.0121372656e+05
    1.1987979710e-01    1.0121372656e+05
    1.1988975108e-01    1.0121372656e+05
    1.1989970505e-01    1.0121371875e+05
    1.1990997940e-01    1.0121371875e+05
    1.1991993338e-01    1.0121371094e+05
    1.1992988735e-01    1.0121371094e+05
    1.1993984878e-01    1.0121371094e+05
    1.1994980276e-01    1.0121369531e+05
    1.1995976418e-01    1.0121369531e+05
    1.1996971816e-01    1.0121369531e+05
    1.1997998506e-01    1.0121368750e+05
    1.1998994648e-01    1.0121368750e+05
    1.1999990046e-01    1.0121368750e+05
endcurve
