Curveplot
LS-DYNA keyword deck by LS-PrePost                          
Time
Pressure
Defined Connection
Pressure @ 45 #pts=12001
* Minval=     9.6927500000e+04 at time=         0.0698399618
* Maxval=     1.1189566406e+05 at time=         0.0536699146
    0.0000000000e+00    1.0120000000e+05
    9.9485323517e-06    1.0120000000e+05
    1.9981209334e-05    1.0120000000e+05
    2.9949225791e-05    1.0120000000e+05
    3.9983675379e-05    1.0120000000e+05
    4.9943413615e-05    1.0120000000e+05
    5.9983012761e-05    1.0120000000e+05
    6.9984998845e-05    1.0120000000e+05
    7.9967219790e-05    1.0120000000e+05
    8.9998138719e-05    1.0120000000e+05
    9.9989490991e-05    1.0120000000e+05
    1.0999783262e-04    1.0120000000e+05
    1.1993521912e-04    1.0120000000e+05
    1.2993828568e-04    1.0120000000e+05
    1.3999987277e-04    1.0120000000e+05
    1.4995170932e-04    1.0120000000e+05
    1.5993998386e-04    1.0120000000e+05
    1.6995708575e-04    1.0120000000e+05
    1.7999477859e-04    1.0120000000e+05
    1.8995744176e-04    1.0120000000e+05
    1.9992001762e-04    1.0120000000e+05
    2.0996357489e-04    1.0120000000e+05
    2.1999218734e-04    1.0120000000e+05
    2.2999625071e-04    1.0120000000e+05
    2.3996630625e-04    1.0120000000e+05
    2.4998502340e-04    1.0120000000e+05
    2.5993902818e-04    1.0120000000e+05
    2.6991320192e-04    1.0120000000e+05
    2.7990658418e-04    1.0120000000e+05
    2.8991734143e-04    1.0120000000e+05
    2.9994378565e-04    1.0120000000e+05
    3.0998358852e-04    1.0120000000e+05
    3.1993194716e-04    1.0120000000e+05
    3.2999206451e-04    1.0120000000e+05
    3.3995517879e-04    1.0120000000e+05
    3.4992251312e-04    1.0120000000e+05
    3.5999997635e-04    1.0120000000e+05
    3.6997199641e-04    1.0120000000e+05
    3.7994276499e-04    1.0120000000e+05
    3.8990942994e-04    1.0120000000e+05
    3.9998514694e-04    1.0120000000e+05
    4.0994418669e-04    1.0120000000e+05
    4.1989501915e-04    1.0120000000e+05
    4.2995193508e-04    1.0120000000e+05
    4.3999589980e-04    1.0120000000e+05
    4.4991233153e-04    1.0120000000e+05
    4.5993333333e-04    1.0120000000e+05
    4.6993882279e-04    1.0120000000e+05
    4.7992702457e-04    1.0120000000e+05
    4.8989593051e-04    1.0120000000e+05
    4.9996626331e-04    1.0120000000e+05
    5.0989171723e-04    1.0120000000e+05
    5.1991920918e-04    1.0120000000e+05
    5.2992178826e-04    1.0120000000e+05
    5.3989718435e-04    1.0120000000e+05
    5.4997479310e-04    1.0120000000e+05
    5.5988808163e-04    1.0120000000e+05
    5.6990439771e-04    1.0120000000e+05
    5.7988741901e-04    1.0120000000e+05
    5.8997154702e-04    1.0120000000e+05
    5.9988209978e-04    1.0120000000e+05
    6.0989172198e-04    1.0120000000e+05
    6.1986106448e-04    1.0120000000e+05
    6.2992720632e-04    1.0120000000e+05
    6.3995376695e-04    1.0120000000e+05
    6.4993510023e-04    1.0120000000e+05
    6.5986864502e-04    1.0120000000e+05
    6.6989992047e-04    1.0120000000e+05
    6.7988072988e-04    1.0120000000e+05
    6.8995956099e-04    1.0120000000e+05
    6.9998519029e-04    1.0120000000e+05
    7.0995173883e-04    1.0120000000e+05
    7.1985815885e-04    1.0120000000e+05
    7.2986399755e-04    1.0120000000e+05
    7.3996651918e-04    1.0120000000e+05
    7.4984686216e-04    1.0120000000e+05
    7.5998227112e-04    1.0120000000e+05
    7.6988915680e-04    1.0120000000e+05
    7.7988934936e-04    1.0120000000e+05
    7.8998412937e-04    1.0120000000e+05
    7.9983944306e-04    1.0120000000e+05
    8.0995523604e-04    1.0120000000e+05
    8.1999565009e-04    1.0120000000e+05
    8.2995300181e-04    1.0120000000e+05
    8.3983136574e-04    1.0120000000e+05
    8.4997620434e-04    1.0120000000e+05
    8.5986091290e-04    1.0120000000e+05
    8.6983462097e-04    1.0120000000e+05
    8.7989872554e-04    1.0120000000e+05
    8.8987243362e-04    1.0120000000e+05
    8.9993578149e-04    1.0120000000e+05
    9.0990489116e-04    1.0120000000e+05
    9.1996300034e-04    1.0120000000e+05
    9.2992291320e-04    1.0120000000e+05
    9.3997112708e-04    1.0120000000e+05
    9.4991695369e-04    1.0120000000e+05
    9.5995032461e-04    1.0120000000e+05
    9.6987700090e-04    1.0120000000e+05
    9.7989046481e-04    1.0120000000e+05
    9.8999217153e-04    1.0120000000e+05
    9.9998223595e-04    1.0120000000e+05
    1.0098570492e-03    1.0120000000e+05
    1.0198167292e-03    1.0120000000e+05
    1.0298528941e-03    1.0120000000e+05
    1.0399837047e-03    1.0120000000e+05
    1.0499964701e-03    1.0120000000e+05
    1.0598846711e-03    1.0120000000e+05
    1.0698568076e-03    1.0120000000e+05
    1.0799149750e-03    1.0120000000e+05
    1.0898429900e-03    1.0120000000e+05
    1.0998555226e-03    1.0120000000e+05
    1.1099540861e-03    1.0120000000e+05
    1.1199176079e-03    1.0120000000e+05
    1.1299662292e-03    1.0120000000e+05
    1.1398751521e-03    1.0120000000e+05
    1.1498673121e-03    1.0120000000e+05
    1.1599449208e-03    1.0120000000e+05
    1.1698772432e-03    1.0120000000e+05
    1.1798940832e-03    1.0120000000e+05
    1.1899947422e-03    1.0120000000e+05
    1.1999446433e-03    1.0120000000e+05
    1.2099790620e-03    1.0120000000e+05
    1.2198571349e-03    1.0120000000e+05
    1.2298177462e-03    1.0120000000e+05
    1.2398629915e-03    1.0120000000e+05
    1.2499960139e-03    1.0120000000e+05
    1.2599640759e-03    1.0120000000e+05
    1.2697657803e-03    1.0120000000e+05
    1.2799024116e-03    1.0120000000e+05
    1.2898705900e-03    1.0120000000e+05
    1.2999234023e-03    1.0120000000e+05
    1.3098011259e-03    1.0120000000e+05
    1.3197619701e-03    1.0120000000e+05
    1.3298070990e-03    1.0120000000e+05
    1.3399384916e-03    1.0120000000e+05
    1.3498880435e-03    1.0120000000e+05
    1.3599214144e-03    1.0120000000e+05
    1.3697666582e-03    1.0120000000e+05
    1.3799715089e-03    1.0120000000e+05
    1.3899864862e-03    1.0120000000e+05
    1.3997978531e-03    1.0120000000e+05
    1.4099790715e-03    1.0120000000e+05
    1.4199677389e-03    1.0120000000e+05
    1.4297534944e-03    1.0120000000e+05
    1.4399132924e-03    1.0120000000e+05
    1.4498681994e-03    1.0120000000e+05
    1.4599086717e-03    1.0120000000e+05
    1.4697378501e-03    1.0120000000e+05
    1.4799523633e-03    1.0120000000e+05
    1.4899536036e-03    1.0120000000e+05
    1.4997345861e-03    1.0120000000e+05
    1.5099090524e-03    1.0120000000e+05
    1.5198618639e-03    1.0120000000e+05
    1.5299016377e-03    1.0120000000e+05
    1.5397119569e-03    1.0120000000e+05
    1.5499278670e-03    1.0120000000e+05
    1.5599124599e-03    1.0120000000e+05
    1.5699854121e-03    1.0120000000e+05
    1.5798194800e-03    1.0120000000e+05
    1.5897393459e-03    1.0120000000e+05
    1.5997473383e-03    1.0120000000e+05
    1.6098448541e-03    1.0120000000e+05
    1.6196932411e-03    1.0120000000e+05
    1.6299689887e-03    1.0120000000e+05
    1.6399946762e-03    1.0120000000e+05
    1.6497632023e-03    1.0120000000e+05
    1.6599722439e-03    1.0120000000e+05
    1.6699197004e-03    1.0120000000e+05
    1.6799576115e-03    1.0120000000e+05
    1.6897248570e-03    1.0120000000e+05
    1.6999467043e-03    1.0120000000e+05
    1.7098953249e-03    1.0120000000e+05
    1.7199359136e-03    1.0120000000e+05
    1.7296936130e-03    1.0120000000e+05
    1.7399209319e-03    1.0120000000e+05
    1.7498625675e-03    1.0120000000e+05
    1.7598976847e-03    1.0120000000e+05
    1.7696369905e-03    1.0120000000e+05
    1.7798569752e-03    1.0120000000e+05
    1.7897782382e-03    1.0120000000e+05
    1.7997988034e-03    1.0120000000e+05
    1.8099163426e-03    1.0120000000e+05
    1.8197227037e-03    1.0120000000e+05
    1.8296231283e-03    1.0120000000e+05
    1.8396193627e-03    1.0120000000e+05
    1.8497143174e-03    1.0120000000e+05
    1.8599102041e-03    1.0120000000e+05
    1.8697782652e-03    1.0120000000e+05
    1.8797398079e-03    1.0120000000e+05
    1.8897684058e-03    1.0120000000e+05
    1.8998434534e-03    1.0120000000e+05
    1.9099611090e-03    1.0120000000e+05
    1.9196739886e-03    1.0120000000e+05
    1.9298407715e-03    1.0120000000e+05
    1.9395988202e-03    1.0120000000e+05
    1.9498334732e-03    1.0120000000e+05
    1.9595981576e-03    1.0120000000e+05
    1.9698354881e-03    1.0120000000e+05
    1.9796036649e-03    1.0120000000e+05
    1.9898188766e-03    1.0120000000e+05
    1.9996212795e-03    1.0120000000e+05
    2.0098325331e-03    1.0120000000e+05
    2.0195730031e-03    1.0120000000e+05
    2.0298028830e-03    1.0120000000e+05
    2.0399864297e-03    1.0120000000e+05
    2.0497364458e-03    1.0120000000e+05
    2.0599281415e-03    1.0120000000e+05
    2.0696434658e-03    1.0120000000e+05
    2.0799068734e-03    1.0120000000e+05
    2.0897071809e-03    1.0120000000e+05
    2.0999088883e-03    1.0120000000e+05
    2.1096356213e-03    1.0120000000e+05
    2.1198077593e-03    1.0120000000e+05
    2.1296187770e-03    1.0120000000e+05
    2.1398833487e-03    1.0120000000e+05
    2.1497099660e-03    1.0120000000e+05
    2.1595412400e-03    1.0120000000e+05
    2.1698689088e-03    1.0120000000e+05
    2.1797481459e-03    1.0120000000e+05
    2.1896632388e-03    1.0120000000e+05
    2.1995881107e-03    1.0120000000e+05
    2.2099839989e-03    1.0120000000e+05
    2.2199291270e-03    1.0120000000e+05
    2.2298693657e-03    1.0120000000e+05
    2.2397870198e-03    1.0120000000e+05
    2.2497030441e-03    1.0120000000e+05
    2.2596004419e-03    1.0120000000e+05
    2.2699066903e-03    1.0120000000e+05
    2.2797379643e-03    1.0120000000e+05
    2.2899645846e-03    1.0120000000e+05
    2.2996938787e-03    1.0120000000e+05
    2.3097889498e-03    1.0120000000e+05
    2.3198022973e-03    1.0120000000e+05
    2.3297339212e-03    1.0120000000e+05
    2.3395859171e-03    1.0120000000e+05
    2.3497827351e-03    1.0120000000e+05
    2.3598952685e-03    1.0120000000e+05
    2.3699246813e-03    1.0120000000e+05
    2.3798730690e-03    1.0120000000e+05
    2.3897413630e-03    1.0120000000e+05
    2.3999365512e-03    1.0120000000e+05
    2.4096448906e-03    1.0120000000e+05
    2.4196761660e-03    1.0120000000e+05
    2.4296257179e-03    1.0120000000e+05
    2.4398867972e-03    1.0120000000e+05
    2.4496717378e-03    1.0120000000e+05
    2.4597649463e-03    1.0120000000e+05
    2.4697743356e-03    1.0120000000e+05
    2.4797003716e-03    1.0120000000e+05
    2.4899216369e-03    1.0120000000e+05
    2.4996816646e-03    1.0120000000e+05
    2.5097327307e-03    1.0120000000e+05
    2.5196985807e-03    1.0120000000e+05
    2.5299438275e-03    1.0120000000e+05
    2.5397385471e-03    1.0120000000e+05
    2.5498089381e-03    1.0120000000e+05
    2.5597915519e-03    1.0120000000e+05
    2.5696875528e-03    1.0120000000e+05
    2.5798461866e-03    1.0120000000e+05
    2.5899133179e-03    1.0120000000e+05
    2.5998896454e-03    1.0120000000e+05
    2.6097758673e-03    1.0120000000e+05
    2.6199093554e-03    1.0120000000e+05
    2.6299483143e-03    1.0120000000e+05
    2.6398939081e-03    1.0120000000e+05
    2.6497459039e-03    1.0120000000e+05
    2.6598293334e-03    1.0120000000e+05
    2.6698142756e-03    1.0120000000e+05
    2.6797011960e-03    1.0120000000e+05
    2.6898053475e-03    1.0120000000e+05
    2.6998068206e-03    1.0120000000e+05
    2.7097056154e-03    1.0120000000e+05
    2.7198069729e-03    1.0120000000e+05
    2.7298002969e-03    1.0120000000e+05
    2.7399833780e-03    1.0120000000e+05
    2.7497578412e-03    1.0120000000e+05
    2.7597160079e-03    1.0120000000e+05
    2.7698483318e-03    1.0120000000e+05
    2.7798602823e-03    1.0120000000e+05
    2.7897520922e-03    1.0120000000e+05
    2.7998003643e-03    1.0120000000e+05
    2.8099946212e-03    1.0120000000e+05
    2.8197837528e-03    1.0120000000e+05
    2.8299770784e-03    1.0120000000e+05
    2.8397643473e-03    1.0120000000e+05
    2.8499320615e-03    1.0120000000e+05
    2.8599468060e-03    1.0120000000e+05
    2.8698076494e-03    1.0120000000e+05
    2.8797595296e-03    1.0120000000e+05
    2.8897884768e-03    1.0120000000e+05
    2.8998800553e-03    1.0120000000e+05
    2.9097849037e-03    1.0120000000e+05
    2.9199579731e-03    1.0120000000e+05
    2.9299193993e-03    1.0120000000e+05
    2.9398833867e-03    1.0120000000e+05
    2.9498301446e-03    1.0120000000e+05
    2.9599447735e-03    1.0120000000e+05
    2.9699832667e-03    1.0120000000e+05
    2.9799172189e-03    1.0120000000e+05
    2.9899028596e-03    1.0120000000e+05
    2.9998812824e-03    1.0120000000e+05
    3.0099558644e-03    1.0120000000e+05
    3.0198520981e-03    1.0120000000e+05
    3.0299175996e-03    1.0120000000e+05
    3.0398911331e-03    1.0120000000e+05
    3.0499785207e-03    1.0120000000e+05
    3.0599732418e-03    1.0120000000e+05
    3.0699602794e-03    1.0120000000e+05
    3.0799617525e-03    1.0120000000e+05
    3.0899690464e-03    1.0120000000e+05
    3.0998319853e-03    1.0120000000e+05
    3.1099563930e-03    1.0120000000e+05
    3.1198351644e-03    1.0120000000e+05
    3.1299351249e-03    1.0120000000e+05
    3.1398350839e-03    1.0120000000e+05
    3.1499904580e-03    1.0120000000e+05
    3.1599937938e-03    1.0120000000e+05
    3.1699214596e-03    1.0120000000e+05
    3.1799278222e-03    1.0120000000e+05
    3.1898755115e-03    1.0120000000e+05
    3.1999822240e-03    1.0120000000e+05
    3.2099436503e-03    1.0120000000e+05
    3.2198445406e-03    1.0120000000e+05
    3.2298245933e-03    1.0120000000e+05
    3.2398933545e-03    1.0120000000e+05
    3.2498626970e-03    1.0120000000e+05
    3.2599149272e-03    1.0120000000e+05
    3.2698367722e-03    1.0120000000e+05
    3.2798119355e-03    1.0120000000e+05
    3.2898993231e-03    1.0120000000e+05
    3.2998048700e-03    1.0120000000e+05
    3.3097914420e-03    1.0120000000e+05
    3.3198464662e-03    1.0120000000e+05
    3.3299450297e-03    1.0120000000e+05
    3.3398980740e-03    1.0120000000e+05
    3.3498927951e-03    1.0120000000e+05
    3.3599510789e-03    1.0120000000e+05
    3.3698349725e-03    1.0120000000e+05
    3.3799894154e-03    1.0120000000e+05
    3.3899815753e-03    1.0120000000e+05
    3.3999965526e-03    1.0120000000e+05
    3.4098629840e-03    1.0120000000e+05
    3.4199622460e-03    1.0120000000e+05
    3.4299157560e-03    1.0120000000e+05
    3.4398869611e-03    1.0120000000e+05
    3.4498949535e-03    1.0120000000e+05
    3.4599662758e-03    1.0120000000e+05
    3.4698073287e-03    1.0120000000e+05
    3.4799571149e-03    1.0120000000e+05
    3.4898885060e-03    1.0120000000e+05
    3.4998534247e-03    1.0120000000e+05
    3.5098851658e-03    1.0120000000e+05
    3.5199031699e-03    1.0120000000e+05
    3.5299917217e-03    1.0120000000e+05
    3.5398674663e-03    1.0120000000e+05
    3.5499848891e-03    1.0120000000e+05
    3.5599484108e-03    1.0120000000e+05
    3.5698905122e-03    1.0120000000e+05
    3.5798903555e-03    1.0120000000e+05
    3.5899251234e-03    1.0120000000e+05
    3.5999452230e-03    1.0120000000e+05
    3.6098179407e-03    1.0120000000e+05
    3.6199092865e-03    1.0120000000e+05
    3.6297738552e-03    1.0120000000e+05
    3.6399741657e-03    1.0120000000e+05
    3.6498787813e-03    1.0120000000e+05
    3.6598341540e-03    1.0120000000e+05
    3.6698326003e-03    1.0120000000e+05
    3.6798072979e-03    1.0120000000e+05
    3.6898513790e-03    1.0120000000e+05
    3.6999024451e-03    1.0120000000e+05
    3.7099607289e-03    1.0120000000e+05
    3.7198220380e-03    1.0120000000e+05
    3.7299315445e-03    1.0120000000e+05
    3.7398112472e-03    1.0120000000e+05
    3.7499703467e-03    1.0120000000e+05
    3.7598896306e-03    1.0120000000e+05
    3.7698261440e-03    1.0120000000e+05
    3.7797794212e-03    1.0120000000e+05
    3.7899897434e-03    1.0120000000e+05
    3.7999630440e-03    1.0120000000e+05
    3.8099437952e-03    1.0120000000e+05
    3.8199322298e-03    1.0120000000e+05
    3.8299267180e-03    1.0120000000e+05
    3.8399249315e-03    1.0120000000e+05
    3.8499250077e-03    1.0120000000e+05
    3.8599262480e-03    1.0120000000e+05
    3.8699274883e-03    1.0120000000e+05
    3.8799275644e-03    1.0120000000e+05
    3.8899283390e-03    1.0120000000e+05
    3.8999286480e-03    1.0120000000e+05
    3.9099263959e-03    1.0120000000e+05
    3.9199236780e-03    1.0120000000e+05
    3.9299223572e-03    1.0120000000e+05
    3.9399187081e-03    1.0120000000e+05
    3.9499164559e-03    1.0120000000e+05
    3.9599188603e-03    1.0120000000e+05
    3.9699249901e-03    1.0120000000e+05
    3.9799301885e-03    1.0120000000e+05
    3.9899409749e-03    1.0120000000e+05
    3.9999657311e-03    1.0120000000e+05
    4.0099942125e-03    1.0120000000e+05
    4.0197735652e-03    1.0120000000e+05
    4.0298164822e-03    1.0120000000e+05
    4.0398701094e-03    1.0120000000e+05
    4.0499232709e-03    1.0120000000e+05
    4.0599899366e-03    1.0120000000e+05
    4.0698191151e-03    1.0120000000e+05
    4.0799058042e-03    1.0120000000e+05
    4.0899924934e-03    1.0120000000e+05
    4.0998454206e-03    1.0120000000e+05
    4.1099651717e-03    1.0120000000e+05
    4.1198334657e-03    1.0120000000e+05
    4.1299574077e-03    1.0120000000e+05
    4.1398499161e-03    1.0120000000e+05
    4.1497498751e-03    1.0120000000e+05
    4.1599054821e-03    1.0120000000e+05
    4.1698156856e-03    1.0120000000e+05
    4.1797473095e-03    1.0120000000e+05
    4.1899289936e-03    1.0120000000e+05
    4.1998662055e-03    1.0120000000e+05
    4.2098187841e-03    1.0120000000e+05
    4.2197839357e-03    1.0120000000e+05
    4.2299949564e-03    1.0120000000e+05
    4.2399670929e-03    1.0120000000e+05
    4.2499592528e-03    1.0120000000e+05
    4.2599532753e-03    1.0120000000e+05
    4.2699384503e-03    1.0120000000e+05
    4.2799483053e-03    1.0120000000e+05
    4.2899758555e-03    1.0120000000e+05
    4.2999968864e-03    1.0120000000e+05
    4.3097552843e-03    1.0120000000e+05
    4.3198051862e-03    1.0120000000e+05
    4.3298620731e-03    1.0120000000e+05
    4.3399105780e-03    1.0120000000e+05
    4.3499586172e-03    1.0120000000e+05
    4.3597845361e-03    1.0120000000e+05
    4.3698623776e-03    1.0120000000e+05
    4.3799355626e-03    1.0120000000e+05
    4.3897605501e-03    1.0120000000e+05
    4.3998723850e-03    1.0120000000e+05
    4.4099702500e-03    1.0120000000e+05
    4.4198175892e-03    1.0120000000e+05
    4.4299392030e-03    1.0120000000e+05
    4.4398112223e-03    1.0120000000e+05
    4.4499295764e-03    1.0120000000e+05
    4.4598099776e-03    1.0120000000e+05
    4.4699669816e-03    1.0120000000e+05
    4.4798594899e-03    1.0120000000e+05
    4.4897431508e-03    1.0120000000e+05
    4.4999145903e-03    1.0120000000e+05
    4.5098457485e-03    1.0120000000e+05
    4.5197634026e-03    1.0120000000e+05
    4.5299273916e-03    1.0120000000e+05
    4.5398599468e-03    1.0120000000e+05
    4.5498088002e-03    1.0120000000e+05
    4.5597553253e-03    1.0120000000e+05
    4.5699467883e-03    1.0120000000e+05
    4.5798970386e-03    1.0120000000e+05
    4.5898612589e-03    1.0120000000e+05
    4.5998319983e-03    1.0120000000e+05
    4.6097971499e-03    1.0120000000e+05
    4.6197674237e-03    1.0120000000e+05
    4.6297460794e-03    1.0120000000e+05
    4.6397387050e-03    1.0120000000e+05
    4.6499981545e-03    1.0120000000e+05
    4.6599940397e-03    1.0120000000e+05
    4.6699866652e-03    1.0120000000e+05
    4.6799941920e-03    1.0120000000e+05
    4.6897581778e-03    1.0120000000e+05
    4.6997801401e-03    1.0120000000e+05
    4.7097890638e-03    1.0120000000e+05
    4.7198035754e-03    1.0120000000e+05
    4.7298436984e-03    1.0120000000e+05
    4.7399005853e-03    1.0120000000e+05
    4.7499560751e-03    1.0120000000e+05
    4.7597419471e-03    1.0120000000e+05
    4.7697885893e-03    1.0120000000e+05
    4.7798384912e-03    1.0120000000e+05
    4.7898930497e-03    1.0120000000e+05
    4.7999573871e-03    1.0120000000e+05
    4.8097600229e-03    1.0120000000e+05
    4.8198248260e-03    1.0120000000e+05
    4.8298873007e-03    1.0120000000e+05
    4.8399483785e-03    1.0120000000e+05
    4.8497444950e-03    1.0120000000e+05
    4.8598041758e-03    1.0120000000e+05
    4.8698652536e-03    1.0120000000e+05
    4.8799295910e-03    1.0120000000e+05
    4.8899976537e-03    1.0120000000e+05
    4.8998021521e-03    1.0120000000e+05
    4.9098702148e-03    1.0120000000e+05
    4.9199368805e-03    1.0120000000e+05
    4.9297376536e-03    1.0120000000e+05
    4.9398024566e-03    1.0120000000e+05
    4.9498672597e-03    1.0120000000e+05
    4.9599320628e-03    1.0120000000e+05
    4.9699964002e-03    1.0120000000e+05
    4.9797962420e-03    1.0120000000e+05
    4.9898601137e-03    1.0120000000e+05
    4.9999239855e-03    1.0120000000e+05
    5.0099873915e-03    1.0120000000e+05
    5.0197858363e-03    1.0120000000e+05
    5.0298487768e-03    1.0120000000e+05
    5.0399112515e-03    1.0120000000e+05
    5.0499737263e-03    1.0120000000e+05
    5.0597707741e-03    1.0120000000e+05
    5.0698332489e-03    1.0120000000e+05
    5.0798966549e-03    1.0120000000e+05
    5.0899609923e-03    1.0120000000e+05
    5.0997608341e-03    1.0120000000e+05
    5.1098247059e-03    1.0120000000e+05
    5.1198871806e-03    1.0120000000e+05
    5.1299482584e-03    1.0120000000e+05
    5.1397434436e-03    1.0120000000e+05
    5.1498035900e-03    1.0120000000e+05
    5.1598628052e-03    1.0120000000e+05
    5.1699252799e-03    1.0120000000e+05
    5.1799896173e-03    1.0120000000e+05
    5.1897894591e-03    1.0120000000e+05
    5.1998537965e-03    1.0120000000e+05
    5.2099176683e-03    1.0120000000e+05
    5.2199801430e-03    1.0120000000e+05
    5.2297767252e-03    1.0120000000e+05
    5.2398378029e-03    1.0120000000e+05
    5.2498974837e-03    1.0120000000e+05
    5.2599608898e-03    1.0120000000e+05
    5.2697630599e-03    1.0120000000e+05
    5.2798287943e-03    1.0120000000e+05
    5.2898931317e-03    1.0120000000e+05
    5.2999565378e-03    1.0120000000e+05
    5.3097554483e-03    1.0120000000e+05
    5.3198230453e-03    1.0120000000e+05
    5.3298929706e-03    1.0120000000e+05
    5.3399614990e-03    1.0120000000e+05
    5.3497646004e-03    1.0120000000e+05
    5.3598312661e-03    1.0120000000e+05
    5.3698993288e-03    1.0120000000e+05
    5.3799720481e-03    1.0120000000e+05
    5.3897784092e-03    1.0120000000e+05
    5.3998488002e-03    1.0120000000e+05
    5.4099182598e-03    1.0120000000e+05
    5.4199900478e-03    1.0120000000e+05
    5.4298001342e-03    1.0120000000e+05
    5.4398742504e-03    1.0120000000e+05
    5.4499474354e-03    1.0120000000e+05
    5.4597547278e-03    1.0120000000e+05
    5.4698311724e-03    1.0120000000e+05
    5.4799076170e-03    1.0120000000e+05
    5.4899831302e-03    1.0120000000e+05
    5.4997922853e-03    1.0120000000e+05
    5.5098696612e-03    1.0120000000e+05
    5.5199475028e-03    1.0120000000e+05
    5.5297594517e-03    1.0120000000e+05
    5.5398358963e-03    1.0120000000e+05
    5.5499142036e-03    1.0120000000e+05
    5.5599929765e-03    1.0120000000e+05
    5.5698063225e-03    1.0120000000e+05
    5.5798841640e-03    1.0120000000e+05
    5.5899634026e-03    1.0120000000e+05
    5.5997767486e-03    1.0120000000e+05
    5.6098550558e-03    1.0120000000e+05
    5.6199333631e-03    1.0120000000e+05
    5.6297467090e-03    1.0120000000e+05
    5.6398254819e-03    1.0120000000e+05
    5.6499037892e-03    1.0120000000e+05
    5.6599820964e-03    1.0120000000e+05
    5.6697949767e-03    1.0120000000e+05
    5.6798728183e-03    1.0120000000e+05
    5.6899501942e-03    1.0120000000e+05
    5.6997621432e-03    1.0120000000e+05
    5.7098390535e-03    1.0120000000e+05
    5.7199154980e-03    1.0120000000e+05
    5.7299924083e-03    1.0120000000e+05
    5.7398057543e-03    1.0120000000e+05
    5.7498840615e-03    1.0120000000e+05
    5.7599614374e-03    1.0120000000e+05
    5.7697729208e-03    1.0120000000e+05
    5.7798493654e-03    1.0120000000e+05
    5.7899253443e-03    1.0120000000e+05
    5.7997358963e-03    1.0120000000e+05
    5.8098128065e-03    1.0120000000e+05
    5.8198901825e-03    1.0120000000e+05
    5.8299670927e-03    1.0120000000e+05
    5.8397781104e-03    1.0120000000e+05
    5.8498545550e-03    1.0120000000e+05
    5.8599305339e-03    1.0120000000e+05
    5.8697406203e-03    1.0120000000e+05
    5.8798156679e-03    1.0120000000e+05
    5.8898902498e-03    1.0120000000e+05
    5.8999643661e-03    1.0120000000e+05
    5.9097735211e-03    1.0120000000e+05
    5.9198467061e-03    1.0120000000e+05
    5.9299203567e-03    1.0120000000e+05
    5.9399954043e-03    1.0120000000e+05
    5.9498054907e-03    1.0120000000e+05
    5.9598810039e-03    1.0120000000e+05
    5.9699560516e-03    1.0120000000e+05
    5.9797647409e-03    1.0120000000e+05
    5.9898383915e-03    1.0120000000e+05
    5.9999115765e-03    1.0120000000e+05
    6.0099842958e-03    1.0120000000e+05
    6.0197925195e-03    1.0120000000e+05
    6.0298661701e-03    1.0120000000e+05
    6.0399398208e-03    1.0120000000e+05
    6.0497475788e-03    1.0120000000e+05
    6.0598198324e-03    1.0120000000e+05
    6.0698920861e-03    1.0120000000e+05
    6.0799638741e-03    1.0120000000e+05
    6.0897702351e-03    1.0120000000e+05
    6.0998420231e-03    1.0120000000e+05
    6.1099138111e-03    1.0120000000e+05
    6.1199846677e-03    1.0120000000e+05
    6.1297905631e-03    1.0120000000e+05
    6.1398614198e-03    1.0120000000e+05
    6.1499336734e-03    1.0120000000e+05
    6.1597414315e-03    1.0120000000e+05
    6.1698155478e-03    1.0120000000e+05
    6.1798919924e-03    1.0120000000e+05
    6.1899735592e-03    1.0120000000e+05
    6.1997948214e-03    1.0120000000e+05
    6.2098843046e-03    1.0120000000e+05
    6.2199779786e-03    1.0120000000e+05
    6.2298183329e-03    1.0120000000e+05
    6.2399357557e-03    1.0120000000e+05
    6.2497919425e-03    1.0120000000e+05
    6.2599219382e-03    1.0120000000e+05
    6.2697986141e-03    1.0120000000e+05
    6.2799542211e-03    1.0120000000e+05
    6.2898527831e-03    1.0120000000e+05
    6.2997597270e-03    1.0120000000e+05
    6.3099428080e-03    1.0120000000e+05
    6.3198683783e-03    1.0120000000e+05
    6.3298046589e-03    1.0120000000e+05
    6.3397516496e-03    1.0120000000e+05
    6.3499752432e-03    1.0120000000e+05
    6.3599389978e-03    1.0120000000e+05
    6.3699120656e-03    1.0120000000e+05
    6.3798939809e-03    1.0120000000e+05
    6.3898880035e-03    1.0120000000e+05
    6.3998890109e-03    1.0120000000e+05
    6.4098937437e-03    1.0120000000e+05
    6.4199110493e-03    1.0120000000e+05
    6.4299390651e-03    1.0120000000e+05
    6.4399749972e-03    1.0120000000e+05
    6.4497487620e-03    1.0120000000e+05
    6.4597981982e-03    1.0120000000e+05
    6.4698564820e-03    1.0120000000e+05
    6.4799240790e-03    1.0120000000e+05
    6.4900000580e-03    1.0120000000e+05
    6.4998087473e-03    1.0120000000e+05
    6.5098949708e-03    1.0120000000e+05
    6.5199928358e-03    1.0120000000e+05
    6.5298271365e-03    1.0120000000e+05
    6.5399389714e-03    1.0120000000e+05
    6.5497858450e-03    1.0120000000e+05
    6.5599093214e-03    1.0120000000e+05
    6.5697655082e-03    1.0120000000e+05
    6.5799080767e-03    1.0120000000e+05
    6.5897805616e-03    1.0120000000e+05
    6.5999329090e-03    1.0120000000e+05
    6.6098193638e-03    1.0120000000e+05
    6.6199842840e-03    1.0120000000e+05
    6.6298879683e-03    1.0120000000e+05
    6.6397939809e-03    1.0120000000e+05
    6.6499803215e-03    1.0120000000e+05
    6.6598975100e-03    1.0120000000e+05
    6.6698142327e-03    1.0120000000e+05
    6.6797453910e-03    1.0120000000e+05
    6.6899596713e-03    1.0120000000e+05
    6.6998940893e-03    1.0120000000e+05
    6.7098415457e-03    1.0120000000e+05
    6.7197936587e-03    1.0120000000e+05
    6.7297532223e-03    1.0120000000e+05
    6.7397230305e-03    1.0120000000e+05
    6.7499629222e-03    1.0120000000e+05
    6.7599355243e-03    1.0120000000e+05
    6.7699174397e-03    1.0120000000e+05
    6.7799021490e-03    1.0120000000e+05
    6.7899017595e-03    1.0120000000e+05
    6.7998920567e-03    1.0120000000e+05
    6.8098870106e-03    1.0120000000e+05
    6.8199024536e-03    1.0120000000e+05
    6.8299141712e-03    1.0120000000e+05
    6.8399342708e-03    1.0120000000e+05
    6.8499590270e-03    1.0120000000e+05
    6.8599763326e-03    1.0120000000e+05
    6.8697328679e-03    1.0120000000e+05
    6.8797729909e-03    1.0120000000e+05
    6.8898140453e-03    1.0120000000e+05
    6.8998704664e-03    1.0120000000e+05
    6.9099138491e-03    1.0120000000e+05
    6.9199707359e-03    1.0120000000e+05
    6.9297635928e-03    1.0120000000e+05
    6.9398283958e-03    1.0120000000e+05
    6.9499025121e-03    1.0120000000e+05
    6.9599743001e-03    1.0120000000e+05
    6.9697643630e-03    1.0120000000e+05
    6.9798557088e-03    1.0120000000e+05
    6.9899437949e-03    1.0120000000e+05
    6.9997576065e-03    1.0120000000e+05
    7.0098657161e-03    1.0120000000e+05
    7.0199640468e-03    1.0120000000e+05
    7.0297950879e-03    1.0120000000e+05
    7.0399129763e-03    1.0120000000e+05
    7.0497486740e-03    1.0120000000e+05
    7.0598758757e-03    1.0120000000e+05
    7.0697194897e-03    1.0120000000e+05
    7.0798471570e-03    1.0120000000e+05
    7.0899860002e-03    1.0120000000e+05
    7.0998393930e-03    1.0120000000e+05
    7.1099880151e-03    1.0120000000e+05
    7.1198637597e-03    1.0120000000e+05
    7.1297348477e-03    1.0120000000e+05
    7.1398927830e-03    1.0120000000e+05
    7.1497722529e-03    1.0120000000e+05
    7.1599395014e-03    1.0120000000e+05
    7.1698329411e-03    1.0120000000e+05
    7.1797277778e-03    1.0120000000e+05
    7.1899136528e-03    1.0120000000e+05
    7.1998201311e-03    1.0120000000e+05
    7.2097228840e-03    1.0120000000e+05
    7.2199176066e-03    1.0120000000e+05
    7.2298375890e-03    1.0120000000e+05
    7.2397594340e-03    1.0120000000e+05
    7.2499695234e-03    1.0120000000e+05
    7.2598978877e-03    1.0120000000e+05
    7.2698327713e-03    1.0120000000e+05
    7.2797746398e-03    1.0120000000e+05
    7.2897188365e-03    1.0120000000e+05
    7.2999526747e-03    1.0120000000e+05
    7.3099094443e-03    1.0120000000e+05
    7.3198638856e-03    1.0120000000e+05
    7.3298225179e-03    1.0120000000e+05
    7.3397913948e-03    1.0120000000e+05
    7.3497653939e-03    1.0120000000e+05
    7.3597412556e-03    1.0120000000e+05
    7.3697203770e-03    1.0120000000e+05
    7.3799900711e-03    1.0120000000e+05
    7.3899808340e-03    1.0120000000e+05
    7.3999739252e-03    1.0120000000e+05
    7.4099721387e-03    1.0120000000e+05
    7.4199782684e-03    1.0120000000e+05
    7.4299867265e-03    1.0120000000e+05
    7.4399928562e-03    1.0120000000e+05
    7.4497209862e-03    1.0120000000e+05
    7.4597443454e-03    1.0120000000e+05
    7.4697737582e-03    1.0120000000e+05
    7.4798059650e-03    1.0120000000e+05
    7.4898423627e-03    1.0120000000e+05
    7.4998834170e-03    1.0120000000e+05
    7.5099254027e-03    1.0120000000e+05
    7.5199692510e-03    1.0120000000e+05
    7.5297378935e-03    1.0120000000e+05
    7.5398008339e-03    1.0120000000e+05
    7.5498651713e-03    1.0120000000e+05
    7.5599309057e-03    1.0120000000e+05
    7.5697167777e-03    1.0120000000e+05
    7.5797950849e-03    1.0120000000e+05
    7.5898771174e-03    1.0120000000e+05
    7.5999642722e-03    1.0120000000e+05
    7.6097724959e-03    1.0120000000e+05
    7.6198722236e-03    1.0120000000e+05
    7.6299705543e-03    1.0120000000e+05
    7.6397862285e-03    1.0120000000e+05
    7.6499017887e-03    1.0120000000e+05
    7.6597300358e-03    1.0120000000e+05
    7.6698521152e-03    1.0120000000e+05
    7.6799816452e-03    1.0120000000e+05
    7.6898275875e-03    1.0120000000e+05
    7.6999654993e-03    1.0120000000e+05
    7.7098133042e-03    1.0120000000e+05
    7.7199582011e-03    1.0120000000e+05
    7.7298237011e-03    1.0120000000e+05
    7.7399811707e-03    1.0120000000e+05
    7.7498527244e-03    1.0120000000e+05
    7.7597331256e-03    1.0120000000e+05
    7.7699092217e-03    1.0120000000e+05
    7.7797942795e-03    1.0120000000e+05
    7.7899736352e-03    1.0120000000e+05
    7.7998735942e-03    1.0120000000e+05
    7.8097824007e-03    1.0120000000e+05
    7.8199878335e-03    1.0120000000e+05
    7.8299054876e-03    1.0120000000e+05
    7.8398296610e-03    1.0120000000e+05
    7.8497463837e-03    1.0120000000e+05
    7.8599555418e-03    1.0120000000e+05
    7.8698825091e-03    1.0120000000e+05
    7.8798197210e-03    1.0120000000e+05
    7.8897653148e-03    1.0120000000e+05
    7.8997146338e-03    1.0120000000e+05
    7.9099619761e-03    1.0120000000e+05
    7.9199178144e-03    1.0120000000e+05
    7.9298708588e-03    1.0120000000e+05
    7.9398276284e-03    1.0120000000e+05
    7.9498048872e-03    1.0120000000e+05
    7.9597895965e-03    1.0120000000e+05
    7.9697780311e-03    1.0120000000e+05
    7.9797701910e-03    1.0120000000e+05
    7.9897660762e-03    1.0120000000e+05
    7.9997638240e-03    1.0120000000e+05
    8.0097597092e-03    1.0120000000e+05
    8.0197574571e-03    1.0120000000e+05
    8.0297719687e-03    1.0120000000e+05
    8.0397836864e-03    1.0120000000e+05
    8.0497972667e-03    1.0120000000e+05
    8.0598182976e-03    1.0120000000e+05
    8.0698411912e-03    1.0120000000e+05
    8.0798724666e-03    1.0120000000e+05
    8.0899167806e-03    1.0120000000e+05
    8.0999741331e-03    1.0120000000e+05
    8.1097474322e-03    1.0120000000e+05
    8.1198178232e-03    1.0120000000e+05
    8.1298835576e-03    1.0120000000e+05
    8.1399558112e-03    1.0120000000e+05
    8.1497319043e-03    1.0120000000e+05
    8.1597985700e-03    1.0120000000e+05
    8.1698792055e-03    1.0120000000e+05
    8.1799663603e-03    1.0120000000e+05
    8.1897657365e-03    1.0120000000e+05
    8.1998640671e-03    1.0120000000e+05
    8.2099605352e-03    1.0120000000e+05
    8.2197589800e-03    1.0120000000e+05
    8.2298619673e-03    1.0120000000e+05
    8.2399556413e-03    1.0120000000e+05
    8.2497587427e-03    1.0120000000e+05
    8.2598719746e-03    1.0120000000e+05
    8.2699842751e-03    1.0120000000e+05
    8.2798041403e-03    1.0120000000e+05
    8.2899173722e-03    1.0120000000e+05
    8.2997344434e-03    1.0120000000e+05
    8.3098579198e-03    1.0120000000e+05
    8.3199804649e-03    1.0120000000e+05
    8.3298031241e-03    1.0120000000e+05
    8.3399396390e-03    1.0120000000e+05
    8.3497790620e-03    1.0120000000e+05
    8.3599183708e-03    1.0120000000e+05
    8.3697587252e-03    1.0120000000e+05
    8.3798933774e-03    1.0120000000e+05
    8.3897374570e-03    1.0120000000e+05
    8.3998898044e-03    1.0120000000e+05
    8.4097422659e-03    1.0120000000e+05
    8.4199057892e-03    1.0120000000e+05
    8.4297740832e-03    1.0120000000e+05
    8.4399422631e-03    1.0120000000e+05
    8.4498105571e-03    1.0120000000e+05
    8.4599750116e-03    1.0120000000e+05
    8.4698386490e-03    1.0120000000e+05
    8.4797022864e-03    1.0120000000e+05
    8.4898611531e-03    1.0120000000e+05
    8.4997247905e-03    1.0120000000e+05
    8.5098873824e-03    1.0120000000e+05
    8.5197510198e-03    1.0120000000e+05
    8.5299136117e-03    1.0120000000e+05
    8.5397791117e-03    1.0120000000e+05
    8.5499417037e-03    1.0120000000e+05
    8.5598053411e-03    1.0120000000e+05
    8.5699670017e-03    1.0120000000e+05
    8.5798278451e-03    1.0120000000e+05
    8.5899876431e-03    1.0120000000e+05
    8.5998475552e-03    1.0120000000e+05
    8.6097083986e-03    1.0120000000e+05
    8.6198672652e-03    1.0120000000e+05
    8.6297281086e-03    1.0120000000e+05
    8.6398879066e-03    1.0120000000e+05
    8.6497468874e-03    1.0120000000e+05
    8.6599038914e-03    1.0120000000e+05
    8.6697619408e-03    1.0120000000e+05
    8.6799217388e-03    1.0120000000e+05
    8.6897797883e-03    1.0120000000e+05
    8.6999386549e-03    1.0120000000e+05
    8.7098050863e-03    1.0120000000e+05
    8.7199695408e-03    1.0120000000e+05
    8.7298359722e-03    1.0120000000e+05
    8.7397014722e-03    1.0120000000e+05
    8.7498771027e-03    1.0120000000e+05
    8.7597547099e-03    1.0120000000e+05
    8.7699340656e-03    1.0120000000e+05
    8.7798098102e-03    1.0120000000e+05
    8.7899900973e-03    1.0120000000e+05
    8.7998835370e-03    1.0120000000e+05
    8.8097760454e-03    1.0120000000e+05
    8.8199870661e-03    1.0120000000e+05
    8.8299037889e-03    1.0120000000e+05
    8.8398205116e-03    1.0120000000e+05
    8.8497465476e-03    1.0120000000e+05
    8.8599836454e-03    1.0120000000e+05
    8.8699366897e-03    1.0120000000e+05
    8.8798981160e-03    1.0120000000e+05
    8.8898623362e-03    1.0120000000e+05
    8.8998340070e-03    1.0120000000e+05
    8.9098205790e-03    1.0120000000e+05
    8.9198220521e-03    1.0120000000e+05
    8.9298356324e-03    1.0120000000e+05
    8.9398585260e-03    1.0120000000e+05
    8.9498907328e-03    1.0120000000e+05
    8.9599387720e-03    1.0120000000e+05
    8.9699830860e-03    1.0120000000e+05
    8.9797256514e-03    1.0120000000e+05
    8.9897867292e-03    1.0120000000e+05
    8.9998701587e-03    1.0120000000e+05
    9.0099554509e-03    1.0120000000e+05
    9.0197417885e-03    1.0120000000e+05
    9.0298419818e-03    1.0120000000e+05
    9.0399459004e-03    1.0120000000e+05
    9.0497490019e-03    1.0120000000e+05
    9.0598575771e-03    1.0120000000e+05
    9.0699689463e-03    1.0120000000e+05
    9.0797785670e-03    1.0120000000e+05
    9.0898936614e-03    1.0120000000e+05
    9.0997889638e-03    1.0120000000e+05
    9.1098723933e-03    1.0120000000e+05
    9.1198533773e-03    1.0120000000e+05
    9.1297309846e-03    1.0120000000e+05
    9.1398321092e-03    1.0120000000e+05
    9.1498130932e-03    1.0120000000e+05
    9.1596506536e-03    1.0120000000e+05
    9.1696828604e-03    1.0120000000e+05
    9.1799097136e-03    1.0120000000e+05
    9.1899521649e-03    1.0120000000e+05
    9.1997897252e-03    1.0120000000e+05
    9.2097884044e-03    1.0120000000e+05
    9.2199482024e-03    1.0120000000e+05
    9.2298686504e-03    1.0120000000e+05
    9.2399362475e-03    1.0120000000e+05
    9.2497384176e-03    1.0120000000e+05
    9.2596765608e-03    1.0120000000e+05
    9.2697478831e-03    1.0120000000e+05
    9.2799449340e-03    1.0120000000e+05
    9.2898318544e-03    1.0120000000e+05
    9.2998277396e-03    1.0120000000e+05
    9.3099419028e-03    1.0120000000e+05
    9.3197189271e-03    1.0120000000e+05
    9.3295956030e-03    1.0120000000e+05
    9.3395682052e-03    1.0120000000e+05
    9.3496143818e-03    1.0120000000e+05
    9.3597089872e-03    1.0120000000e+05
    9.3698473647e-03    1.0120000000e+05
    9.3795694411e-03    1.0120000000e+05
    9.3897907063e-03    1.0120000000e+05
    9.3996031210e-03    1.0120000000e+05
    9.4099463895e-03    1.0120000000e+05
    9.4198752195e-03    1.0120000000e+05
    9.4298319891e-03    1.0120000000e+05
    9.4398446381e-03    1.0120000000e+05
    9.4499308616e-03    1.0120000000e+05
    9.4595747069e-03    1.0120000000e+05
    9.4697317109e-03    1.0120000000e+05
    9.4799418002e-03    1.0120000000e+05
    9.4897430390e-03    1.0120000000e+05
    9.4995340332e-03    1.0120000000e+05
    9.5099154860e-03    1.0120000000e+05
    9.5198154449e-03    1.0120000000e+05
    9.5297433436e-03    1.0120000000e+05
    9.5397522673e-03    1.0120000000e+05
    9.5497909933e-03    1.0120000000e+05
    9.5598753542e-03    1.0120000000e+05
    9.5699587837e-03    1.0120000000e+05
    9.5795998350e-03    1.0120000000e+05
    9.5897885039e-03    1.0120000000e+05
    9.5995422453e-03    1.0120000000e+05
    9.6098100767e-03    1.0120000000e+05
    9.6196252853e-03    1.0120000000e+05
    9.6295177937e-03    1.0120000000e+05
    9.6399728209e-03    1.0120000000e+05
    9.6498671919e-03    1.0120000000e+05
    9.6598006785e-03    1.0120000000e+05
    9.6697481349e-03    1.0120000000e+05
    9.6797328442e-03    1.0120000000e+05
    9.6897659823e-03    1.0120000000e+05
    9.6998484805e-03    1.0120000000e+05
    9.7099617124e-03    1.0120000000e+05
    9.7195059061e-03    1.0120000000e+05
    9.7297178581e-03    1.0120000000e+05
    9.7399288788e-03    1.0120000000e+05
    9.7495792434e-03    1.0120000000e+05
    9.7598489374e-03    1.0120000000e+05
    9.7695402801e-03    1.0120000000e+05
    9.7798416391e-03    1.0120000000e+05
    9.7895972431e-03    1.0120000000e+05
    9.7998743877e-03    1.0120000000e+05
    9.8095424473e-03    1.0120000000e+05
    9.8196342587e-03    1.0120000000e+05
    9.8299700767e-03    1.0120000000e+05
    9.8399305716e-03    1.0120000000e+05
    9.8499376327e-03    1.0120000000e+05
    9.8599493504e-03    1.0120000000e+05
    9.8699219525e-03    1.0120000000e+05
    9.8798116669e-03    1.0120000000e+05
    9.8899528384e-03    1.0120000000e+05
    9.8998742178e-03    1.0120000000e+05
    9.9098589271e-03    1.0120000000e+05
    9.9197821692e-03    1.0120000000e+05
    9.9297892302e-03    1.0120000000e+05
    9.9398968741e-03    1.0120000000e+05
    9.9499570206e-03    1.0120000000e+05
    9.9598383531e-03    1.0120000000e+05
    9.9699897692e-03    1.0120000000e+05
    9.9799316376e-03    1.0120000000e+05
    9.9899182096e-03    1.0120000000e+05
    9.9998749793e-03    1.0120000000e+05
    1.0009896941e-02    1.0120000000e+05
    1.0019903071e-02    1.0120000000e+05
    1.0029962286e-02    1.0120000000e+05
    1.0039900430e-02    1.0120000000e+05
    1.0049964301e-02    1.0120000000e+05
    1.0059940629e-02    1.0120000000e+05
    1.0069807991e-02    1.0120000000e+05
    1.0079867207e-02    1.0120000000e+05
    1.0089989752e-02    1.0120000000e+05
    1.0099935345e-02    1.0120000000e+05
    1.0109862313e-02    1.0120000000e+05
    1.0119982064e-02    1.0120000000e+05
    1.0129815899e-02    1.0120000000e+05
    1.0139778256e-02    1.0120000000e+05
    1.0149850510e-02    1.0120000000e+05
    1.0159773752e-02    1.0120000000e+05
    1.0169784538e-02    1.0120000000e+05
    1.0179865174e-02    1.0120000000e+05
    1.0189761408e-02    1.0120000000e+05
    1.0199944489e-02    1.0120000000e+05
    1.0209934786e-02    1.0120000000e+05
    1.0219971649e-02    1.0120000000e+05
    1.0229797103e-02    1.0120000000e+05
    1.0239906609e-02    1.0120000000e+05
    1.0249798186e-02    1.0120000000e+05
    1.0259966366e-02    1.0120000000e+05
    1.0269912891e-02    1.0120000000e+05
    1.0279885493e-02    1.0120000000e+05
    1.0289886035e-02    1.0120000000e+05
    1.0299903341e-02    1.0120000000e+05
    1.0309948586e-02    1.0120000000e+05
    1.0319757275e-02    1.0120000000e+05
    1.0329835117e-02    1.0120000000e+05
    1.0339938104e-02    1.0120000000e+05
    1.0349798016e-02    1.0120000000e+05
    1.0359932669e-02    1.0120000000e+05
    1.0369827040e-02    1.0120000000e+05
    1.0379990563e-02    1.0120000000e+05
    1.0389922187e-02    1.0120000000e+05
    1.0399854742e-02    1.0120000000e+05
    1.0409815237e-02    1.0120000000e+05
    1.0419774801e-02    1.0120000000e+05
    1.0429758579e-02    1.0120000000e+05
    1.0439763777e-02    1.0120000000e+05
    1.0449748486e-02    1.0120000000e+05
    1.0459783487e-02    1.0120000000e+05
    1.0469826870e-02    1.0120000000e+05
    1.0479851626e-02    1.0120000000e+05
    1.0489911772e-02    1.0120000000e+05
    1.0499996133e-02    1.0120000000e+05
    1.0509826243e-02    1.0120000000e+05
    1.0519913398e-02    1.0120000000e+05
    1.0529767722e-02    1.0120000000e+05
    1.0539916344e-02    1.0120000000e+05
    1.0549794883e-02    1.0120000000e+05
    1.0559935123e-02    1.0120000000e+05
    1.0569848120e-02    1.0120000000e+05
    1.0579778813e-02    1.0120000000e+05
    1.0589960031e-02    1.0120000000e+05
    1.0599894449e-02    1.0120000000e+05
    1.0609855875e-02    1.0120000000e+05
    1.0619826615e-02    1.0120000000e+05
    1.0629797354e-02    1.0120000000e+05
    1.0639787652e-02    1.0120000000e+05
    1.0649800301e-02    1.0120000000e+05
    1.0659810156e-02    1.0120000000e+05
    1.0669820011e-02    1.0120000000e+05
    1.0679855943e-02    1.0120000000e+05
    1.0689908639e-02    1.0120000000e+05
    1.0699960403e-02    1.0120000000e+05
    1.0709752329e-02    1.0120000000e+05
    1.0719829239e-02    1.0120000000e+05
    1.0729917325e-02    1.0120000000e+05
    1.0739740916e-02    1.0120000000e+05
    1.0749842040e-02    1.0120000000e+05
    1.0759955272e-02    1.0120000000e+05
    1.0769808665e-02    1.0120000000e+05
    1.0779934004e-02    1.0120000000e+05
    1.0789806023e-02    1.0120000000e+05
    1.0799953714e-02    1.0120000000e+05
    1.0809839703e-02    1.0120000000e+05
    1.0819997638e-02    1.0120000000e+05
    1.0829897597e-02    1.0120000000e+05
    1.0839809664e-02    1.0120000000e+05
    1.0849994607e-02    1.0120000000e+05
    1.0859913193e-02    1.0120000000e+05
    1.0869842023e-02    1.0120000000e+05
    1.0879781097e-02    1.0120000000e+05
    1.0889993981e-02    1.0120000000e+05
    1.0899941437e-02    1.0120000000e+05
    1.0909895413e-02    1.0120000000e+05
    1.0919853114e-02    1.0120000000e+05
    1.0929816402e-02    1.0120000000e+05
    1.0939788073e-02    1.0120000000e+05
    1.0949767195e-02    1.0120000000e+05
    1.0959751904e-02    1.0120000000e+05
    1.0969738476e-02    1.0120000000e+05
    1.0979729705e-02    1.0120000000e+05
    1.0989994742e-02    1.0120000000e+05
    1.0999989696e-02    1.0120000000e+05
    1.1009990238e-02    1.0120000000e+05
    1.1019997299e-02    1.0120000000e+05
    1.1029738933e-02    1.0120000000e+05
    1.1039758101e-02    1.0120000000e+05
    1.1049781926e-02    1.0120000000e+05
    1.1059805751e-02    1.0120000000e+05
    1.1069830507e-02    1.0120000000e+05
    1.1079853401e-02    1.0120000000e+05
    1.1089876294e-02    1.0120000000e+05
    1.1099900119e-02    1.0120000000e+05
    1.1109923944e-02    1.0120000000e+05
    1.1119948700e-02    1.0120000000e+05
    1.1129975319e-02    1.0120000000e+05
    1.1139733717e-02    1.0120000000e+05
    1.1149764061e-02    1.0120000000e+05
    1.1159795336e-02    1.0120000000e+05
    1.1169827543e-02    1.0120000000e+05
    1.1179860681e-02    1.0120000000e+05
    1.1189893819e-02    1.0120000000e+05
    1.1199927889e-02    1.0120000000e+05
    1.1209961958e-02    1.0120000000e+05
    1.1219995096e-02    1.0120000000e+05
    1.1229758151e-02    1.0120000000e+05
    1.1239792220e-02    1.0120000000e+05
    1.1249827221e-02    1.0120000000e+05
    1.1259862222e-02    1.0120000000e+05
    1.1269898154e-02    1.0120000000e+05
    1.1279935017e-02    1.0120000000e+05
    1.1289972812e-02    1.0120000000e+05
    1.1299739592e-02    1.0120000000e+05
    1.1309777386e-02    1.0120000000e+05
    1.1319817044e-02    1.0120000000e+05
    1.1329856701e-02    1.0120000000e+05
    1.1339896359e-02    1.0120000000e+05
    1.1349936947e-02    1.0120000000e+05
    1.1359978467e-02    1.0120000000e+05
    1.1369748041e-02    1.0120000000e+05
    1.1379789561e-02    1.0120000000e+05
    1.1389832012e-02    1.0120000000e+05
    1.1399873532e-02    1.0120000000e+05
    1.1409915984e-02    1.0120000000e+05
    1.1419959366e-02    1.0120000000e+05
    1.1429733597e-02    1.0120000000e+05
    1.1439781636e-02    1.0120000000e+05
    1.1449834332e-02    1.0120000000e+05
    1.1459891684e-02    1.0120000000e+05
    1.1469950899e-02    1.0120000000e+05
    1.1479737237e-02    1.0120000000e+05
    1.1489792727e-02    1.0120000000e+05
    1.1499848217e-02    1.0120000000e+05
    1.1509903707e-02    1.0120000000e+05
    1.1519958265e-02    1.0120000000e+05
    1.1529741809e-02    1.0120000000e+05
    1.1539801955e-02    1.0120000000e+05
    1.1549863964e-02    1.0120000000e+05
    1.1559925973e-02    1.0120000000e+05
    1.1569987051e-02    1.0120000000e+05
    1.1579776183e-02    1.0120000000e+05
    1.1589838192e-02    1.0120000000e+05
    1.1599900201e-02    1.0120000000e+05
    1.1609962210e-02    1.0120000000e+05
    1.1619752273e-02    1.0120000000e+05
    1.1629814282e-02    1.0120000000e+05
    1.1639877222e-02    1.0120000000e+05
    1.1649939232e-02    1.0120000000e+05
    1.1659730226e-02    1.0120000000e+05
    1.1669792235e-02    1.0120000000e+05
    1.1679855175e-02    1.0120000000e+05
    1.1689917184e-02    1.0120000000e+05
    1.1699980125e-02    1.0120000000e+05
    1.1709772050e-02    1.0120000000e+05
    1.1719834991e-02    1.0120000000e+05
    1.1729898863e-02    1.0120000000e+05
    1.1739961803e-02    1.0120000000e+05
    1.1749753729e-02    1.0120000000e+05
    1.1759816669e-02    1.0120000000e+05
    1.1769880541e-02    1.0120000000e+05
    1.1779945344e-02    1.0120000000e+05
    1.1789737269e-02    1.0120000000e+05
    1.1799801141e-02    1.0120000000e+05
    1.1809865013e-02    1.0120000000e+05
    1.1819928885e-02    1.0120000000e+05
    1.1829993688e-02    1.0120000000e+05
    1.1839785613e-02    1.0120000000e+05
    1.1849850416e-02    1.0120000000e+05
    1.1859915219e-02    1.0120000000e+05
    1.1869980022e-02    1.0120000000e+05
    1.1879772879e-02    1.0120000000e+05
    1.1889837682e-02    1.0120000000e+05
    1.1899902485e-02    1.0120000000e+05
    1.1909968220e-02    1.0120000000e+05
    1.1919761077e-02    1.0120000000e+05
    1.1929825880e-02    1.0120000000e+05
    1.1939891614e-02    1.0120000000e+05
    1.1949957348e-02    1.0120000000e+05
    1.1959750205e-02    1.0120000000e+05
    1.1969815940e-02    1.0120000000e+05
    1.1979880743e-02    1.0120000000e+05
    1.1989946477e-02    1.0120000000e+05
    1.1999740265e-02    1.0120000000e+05
    1.2009806931e-02    1.0120000000e+05
    1.2019872665e-02    1.0120000000e+05
    1.2029938400e-02    1.0120000000e+05
    1.2039733119e-02    1.0120000000e+05
    1.2049798854e-02    1.0120000000e+05
    1.2059865519e-02    1.0120000000e+05
    1.2069932185e-02    1.0120000000e+05
    1.2079997919e-02    1.0120000000e+05
    1.2089792639e-02    1.0120000000e+05
    1.2099860236e-02    1.0120000000e+05
    1.2109926902e-02    1.0120000000e+05
    1.2119993567e-02    1.0120000000e+05
    1.2129789218e-02    1.0120000000e+05
    1.2139855884e-02    1.0120000000e+05
    1.2149923481e-02    1.0120000000e+05
    1.2159992009e-02    1.0120000000e+05
    1.2169787660e-02    1.0120000000e+05
    1.2179855257e-02    1.0120000000e+05
    1.2189922854e-02    1.0120000000e+05
    1.2199991383e-02    1.0120000000e+05
    1.2209787965e-02    1.0120000000e+05
    1.2219856493e-02    1.0120000000e+05
    1.2229925953e-02    1.0120000000e+05
    1.2239995413e-02    1.0120000000e+05
    1.2249792926e-02    1.0120000000e+05
    1.2259861454e-02    1.0120000000e+05
    1.2269930914e-02    1.0120000000e+05
    1.2279728428e-02    1.0120000000e+05
    1.2289797887e-02    1.0120000000e+05
    1.2299868278e-02    1.0120000000e+05
    1.2309938669e-02    1.0120000000e+05
    1.2319737114e-02    1.0120000000e+05
    1.2329807505e-02    1.0120000000e+05
    1.2339878827e-02    1.0120000000e+05
    1.2349950150e-02    1.0120000000e+05
    1.2359749526e-02    1.0120000000e+05
    1.2369820848e-02    1.0120000000e+05
    1.2379892170e-02    1.0120000000e+05
    1.2389964424e-02    1.0120000000e+05
    1.2399764732e-02    1.0120000000e+05
    1.2409836985e-02    1.0120000000e+05
    1.2419908307e-02    1.0120000000e+05
    1.2429980561e-02    1.0120000000e+05
    1.2439780869e-02    1.0120000000e+05
    1.2449854054e-02    1.0120000000e+05
    1.2459927239e-02    1.0120000000e+05
    1.2469728477e-02    1.0120000000e+05
    1.2479802594e-02    1.0120000000e+05
    1.2489876710e-02    1.0120000000e+05
    1.2499950826e-02    1.0120000000e+05
    1.2509752996e-02    1.0120000000e+05
    1.2519827113e-02    1.0120000000e+05
    1.2529901229e-02    1.0120000000e+05
    1.2539976276e-02    1.0120000000e+05
    1.2549778447e-02    1.0120000000e+05
    1.2559853494e-02    1.0120000000e+05
    1.2569928542e-02    1.0120000000e+05
    1.2579732575e-02    1.0120000000e+05
    1.2589808553e-02    1.0120000000e+05
    1.2599884532e-02    1.0120000000e+05
    1.2609960511e-02    1.0120000000e+05
    1.2619763613e-02    1.0120000000e+05
    1.2629840523e-02    1.0120000000e+05
    1.2639917433e-02    1.0120000000e+05
    1.2649994344e-02    1.0120000000e+05
    1.2659799308e-02    1.0120000000e+05
    1.2669877149e-02    1.0120000000e+05
    1.2679954059e-02    1.0120000000e+05
    1.2689759955e-02    1.0120000000e+05
    1.2699837796e-02    1.0120000000e+05
    1.2709915638e-02    1.0120000000e+05
    1.2719994411e-02    1.0120000000e+05
    1.2729800306e-02    1.0120000000e+05
    1.2739880010e-02    1.0120000000e+05
    1.2749958783e-02    1.0120000000e+05
    1.2759765610e-02    1.0120000000e+05
    1.2769845314e-02    1.0120000000e+05
    1.2779925019e-02    1.0120000000e+05
    1.2789732777e-02    1.0120000000e+05
    1.2799812481e-02    1.0120000000e+05
    1.2809893116e-02    1.0120000000e+05
    1.2819973752e-02    1.0120000000e+05
    1.2829782441e-02    1.0120000000e+05
    1.2839863077e-02    1.0120000000e+05
    1.2849944644e-02    1.0120000000e+05
    1.2859753333e-02    1.0120000000e+05
    1.2869834900e-02    1.0120000000e+05
    1.2879916467e-02    1.0120000000e+05
    1.2889998965e-02    1.0120000000e+05
    1.2899808586e-02    1.0120000000e+05
    1.2909891084e-02    1.0120000000e+05
    1.2919974513e-02    1.0120000000e+05
    1.2929784134e-02    1.0120000000e+05
    1.2939867564e-02    1.0120000000e+05
    1.2949950062e-02    1.0120000000e+05
    1.2959761545e-02    1.0120000000e+05
    1.2969844975e-02    1.0120000000e+05
    1.2979929335e-02    1.0120000000e+05
    1.2989740819e-02    1.0120000000e+05
    1.2999824248e-02    1.0120000000e+05
    1.3009908609e-02    1.0120000000e+05
    1.3019992970e-02    1.0120000000e+05
    1.3029805385e-02    1.0120000000e+05
    1.3039890677e-02    1.0120000000e+05
    1.3049975969e-02    1.0120000000e+05
    1.3059788384e-02    1.0120000000e+05
    1.3069873676e-02    1.0120000000e+05
    1.3079958968e-02    1.0120000000e+05
    1.3089772314e-02    1.0120000000e+05
    1.3099858537e-02    1.0120000000e+05
    1.3109944761e-02    1.0120000000e+05
    1.3119758107e-02    1.0120000000e+05
    1.3129844330e-02    1.0120000000e+05
    1.3139930554e-02    1.0120000000e+05
    1.3149744831e-02    1.0120000000e+05
    1.3159831986e-02    1.0120000000e+05
    1.3169919141e-02    1.0120000000e+05
    1.3179733418e-02    1.0120000000e+05
    1.3189821504e-02    1.0120000000e+05
    1.3199908659e-02    1.0120000000e+05
    1.3209996745e-02    1.0120000000e+05
    1.3219811022e-02    1.0120000000e+05
    1.3229899108e-02    1.0120000000e+05
    1.3239987195e-02    1.0120000000e+05
    1.3249803334e-02    1.0120000000e+05
    1.3259891421e-02    1.0120000000e+05
    1.3269980438e-02    1.0120000000e+05
    1.3279795647e-02    1.0120000000e+05
    1.3289884664e-02    1.0120000000e+05
    1.3299973682e-02    1.0120000000e+05
    1.3309790753e-02    1.0120000000e+05
    1.3319879770e-02    1.0120000000e+05
    1.3329969719e-02    1.0120000000e+05
    1.3339785859e-02    1.0120000000e+05
    1.3349875808e-02    1.0120000000e+05
    1.3359965757e-02    1.0120000000e+05
    1.3369782828e-02    1.0120000000e+05
    1.3379872777e-02    1.0120000000e+05
    1.3389963657e-02    1.0120000000e+05
    1.3399780728e-02    1.0120000000e+05
    1.3409871608e-02    1.0120000000e+05
    1.3419962488e-02    1.0120000000e+05
    1.3429780491e-02    1.0120000000e+05
    1.3439871371e-02    1.0120000000e+05
    1.3449962251e-02    1.0120000000e+05
    1.3459781185e-02    1.0120000000e+05
    1.3469872065e-02    1.0120000000e+05
    1.3479963876e-02    1.0120000000e+05
    1.3489781879e-02    1.0120000000e+05
    1.3499873690e-02    1.0120000000e+05
    1.3509965502e-02    1.0120000000e+05
    1.3519785367e-02    1.0120000000e+05
    1.3529877178e-02    1.0120000000e+05
    1.3539968990e-02    1.0120000000e+05
    1.3549788855e-02    1.0120000000e+05
    1.3559880666e-02    1.0120000000e+05
    1.3569973409e-02    1.0120000000e+05
    1.3579793274e-02    1.0120000000e+05
    1.3589886017e-02    1.0120000000e+05
    1.3599978760e-02    1.0120000000e+05
    1.3609798625e-02    1.0120000000e+05
    1.3619891368e-02    1.0120000000e+05
    1.3629985042e-02    1.0120000000e+05
    1.3639804907e-02    1.0120000000e+05
    1.3649898581e-02    1.0120000000e+05
    1.3659992255e-02    1.0120000000e+05
    1.3669813052e-02    1.0120000000e+05
    1.3679906726e-02    1.0120000000e+05
    1.3689727522e-02    1.0120000000e+05
    1.3699821196e-02    1.0120000000e+05
    1.3709914871e-02    1.0120000000e+05
    1.3719735667e-02    1.0120000000e+05
    1.3729829341e-02    1.0120000000e+05
    1.3739923947e-02    1.0120000000e+05
    1.3749744743e-02    1.0120000000e+05
    1.3759839348e-02    1.0120000000e+05
    1.3769933023e-02    1.0120000000e+05
    1.3779754750e-02    1.0120000000e+05
    1.3789849356e-02    1.0120000000e+05
    1.3799943961e-02    1.0120000000e+05
    1.3809765689e-02    1.0120000000e+05
    1.3819860294e-02    1.0120000000e+05
    1.3829954900e-02    1.0120000000e+05
    1.3839776628e-02    1.0120000000e+05
    1.3849871233e-02    1.0120000000e+05
    1.3859965838e-02    1.0120000000e+05
    1.3869787566e-02    1.0120000000e+05
    1.3879882172e-02    1.0120000000e+05
    1.3889977708e-02    1.0120000000e+05
    1.3899799436e-02    1.0120000000e+05
    1.3909894042e-02    1.0120000000e+05
    1.3919989578e-02    1.0120000000e+05
    1.3929811306e-02    1.0120000000e+05
    1.3939906843e-02    1.0120000000e+05
    1.3949728571e-02    1.0120000000e+05
    1.3959824108e-02    1.0120000000e+05
    1.3969918713e-02    1.0120000000e+05
    1.3979741372e-02    1.0120000000e+05
    1.3989835978e-02    1.0120000000e+05
    1.3999931514e-02    1.0120000000e+05
    1.4009753242e-02    1.0120000000e+05
    1.4019848779e-02    1.0120000000e+05
    1.4029943384e-02    1.0120000000e+05
    1.4039766043e-02    1.0120000000e+05
    1.4049860649e-02    1.0120000000e+05
    1.4059956186e-02    1.0120000000e+05
    1.4069777913e-02    1.0120000000e+05
    1.4079873450e-02    1.0120000000e+05
    1.4089968055e-02    1.0120000000e+05
    1.4099790715e-02    1.0120000000e+05
    1.4109885320e-02    1.0120000000e+05
    1.4119980857e-02    1.0120000000e+05
    1.4129802585e-02    1.0120000000e+05
    1.4139898121e-02    1.0120000000e+05
    1.4149992727e-02    1.0120000000e+05
    1.4159814455e-02    1.0120000000e+05
    1.4169909991e-02    1.0120000000e+05
    1.4179731719e-02    1.0120000000e+05
    1.4189827256e-02    1.0120000000e+05
    1.4199921861e-02    1.0120000000e+05
    1.4209743589e-02    1.0120000000e+05
    1.4219839126e-02    1.0120000000e+05
    1.4229933731e-02    1.0120000000e+05
    1.4239755459e-02    1.0120000000e+05
    1.4249850996e-02    1.0120000000e+05
    1.4259945601e-02    1.0120000000e+05
    1.4269767329e-02    1.0120000000e+05
    1.4279861934e-02    1.0120000000e+05
    1.4289956540e-02    1.0120000000e+05
    1.4299779199e-02    1.0120000000e+05
    1.4309873804e-02    1.0120000000e+05
    1.4319968410e-02    1.0120000000e+05
    1.4329790138e-02    1.0120000000e+05
    1.4339884743e-02    1.0120000000e+05
    1.4349979348e-02    1.0120000000e+05
    1.4359801076e-02    1.0120000000e+05
    1.4369895682e-02    1.0120000000e+05
    1.4379990287e-02    1.0120000000e+05
    1.4389812015e-02    1.0120000000e+05
    1.4399906620e-02    1.0120000000e+05
    1.4409728348e-02    1.0120000000e+05
    1.4419822954e-02    1.0120000000e+05
    1.4429917559e-02    1.0120000000e+05
    1.4439739287e-02    1.0120000000e+05
    1.4449832961e-02    1.0120000000e+05
    1.4459927566e-02    1.0120000000e+05
    1.4469750226e-02    1.0120000000e+05
    1.4479844831e-02    1.0120000000e+05
    1.4489939436e-02    1.0120000000e+05
    1.4499762096e-02    1.0120000000e+05
    1.4509856701e-02    1.0120000000e+05
    1.4519952238e-02    1.0120000000e+05
    1.4529775828e-02    1.0120000000e+05
    1.4539872296e-02    1.0120000000e+05
    1.4549968764e-02    1.0120000000e+05
    1.4559792355e-02    1.0120000000e+05
    1.4569889754e-02    1.0120000000e+05
    1.4579987153e-02    1.0120000000e+05
    1.4589811675e-02    1.0120000000e+05
    1.4599909075e-02    1.0120000000e+05
    1.4609733596e-02    1.0120000000e+05
    1.4619832858e-02    1.0120000000e+05
    1.4629931189e-02    1.0120000000e+05
    1.4639757574e-02    1.0120000000e+05
    1.4649857767e-02    1.0120000000e+05
    1.4659957029e-02    1.0120000000e+05
    1.4669784345e-02    1.0120000000e+05
    1.4679884538e-02    1.0120000000e+05
    1.4689985663e-02    1.0120000000e+05
    1.4699813910e-02    1.0120000000e+05
    1.4709915034e-02    1.0120000000e+05
    1.4719744213e-02    1.0120000000e+05
    1.4729848132e-02    1.0120000000e+05
    1.4739951119e-02    1.0120000000e+05
    1.4749782160e-02    1.0120000000e+05
    1.4759887010e-02    1.0120000000e+05
    1.4769991860e-02    1.0120000000e+05
    1.4779822901e-02    1.0120000000e+05
    1.4789927751e-02    1.0120000000e+05
    1.4799759723e-02    1.0120000000e+05
    1.4809866436e-02    1.0120000000e+05
    1.4819972217e-02    1.0120000000e+05
    1.4829804190e-02    1.0120000000e+05
    1.4839910902e-02    1.0120000000e+05
    1.4849746600e-02    1.0120000000e+05
    1.4859856106e-02    1.0120000000e+05
    1.4869966544e-02    1.0120000000e+05
    1.4879804105e-02    1.0120000000e+05
    1.4889915474e-02    1.0120000000e+05
    1.4899753034e-02    1.0120000000e+05
    1.4909867197e-02    1.0120000000e+05
    1.4919982292e-02    1.0120000000e+05
    1.4929825440e-02    1.0120000000e+05
    1.4939940535e-02    1.0120000000e+05
    1.4949780889e-02    1.0120000000e+05
    1.4959898777e-02    1.0120000000e+05
    1.4969744720e-02    1.0120000000e+05
    1.4979864471e-02    1.0120000000e+05
    1.4989984222e-02    1.0120000000e+05
    1.4999831095e-02    1.0120000000e+05
    1.5009952709e-02    1.0120000000e+05
    1.5019802377e-02    1.0120000000e+05
    1.5029925853e-02    1.0120000000e+05
    1.5039775521e-02    1.0120000000e+05
    1.5049898997e-02    1.0120000000e+05
    1.5059752390e-02    1.0120000000e+05
    1.5069880523e-02    1.0120000000e+05
    1.5079737641e-02    1.0120000000e+05
    1.5089866705e-02    1.0120000000e+05
    1.5099994838e-02    1.0120000000e+05
    1.5109852888e-02    1.0120000000e+05
    1.5119989403e-02    1.0120000000e+05
    1.5129853971e-02    1.0120000000e+05
    1.5139991418e-02    1.0120000000e+05
    1.5149853192e-02    1.0120000000e+05
    1.5159989707e-02    1.0120000000e+05
    1.5169856139e-02    1.0120000000e+05
    1.5179727226e-02    1.0120000000e+05
    1.5189872123e-02    1.0120000000e+05
    1.5199743211e-02    1.0120000000e+05
    1.5209889039e-02    1.0120000000e+05
    1.5219761059e-02    1.0120000000e+05
    1.5229912475e-02    1.0120000000e+05
    1.5239791945e-02    1.0120000000e+05
    1.5249946155e-02    1.0120000000e+05
    1.5259826556e-02    1.0120000000e+05
    1.5269986354e-02    1.0120000000e+05
    1.5279873274e-02    1.0120000000e+05
    1.5289762057e-02    1.0120000000e+05
    1.5299924649e-02    1.0120000000e+05
    1.5309811570e-02    1.0120000000e+05
    1.5319979750e-02    1.0120000000e+05
    1.5329877846e-02    1.0120000000e+05
    1.5339778736e-02    1.0120000000e+05
    1.5349953435e-02    1.0120000000e+05
    1.5359850600e-02    1.0120000000e+05
    1.5369748697e-02    1.0120000000e+05
    1.5379928052e-02    1.0120000000e+05
    1.5389838256e-02    1.0120000000e+05
    1.5399748459e-02    1.0120000000e+05
    1.5409935266e-02    1.0120000000e+05
    1.5419845469e-02    1.0120000000e+05
    1.5429756604e-02    1.0120000000e+05
    1.5439948998e-02    1.0120000000e+05
    1.5449869446e-02    1.0120000000e+05
    1.5459791757e-02    1.0120000000e+05
    1.5469992533e-02    1.0120000000e+05
    1.5479919501e-02    1.0120000000e+05
    1.5489845537e-02    1.0120000000e+05
    1.5499775298e-02    1.0120000000e+05
    1.5509980731e-02    1.0120000000e+05
    1.5519913286e-02    1.0120000000e+05
    1.5529851429e-02    1.0120000000e+05
    1.5539795160e-02    1.0120000000e+05
    1.5549738891e-02    1.0120000000e+05
    1.5559959225e-02    1.0120000000e+05
    1.5569902956e-02    1.0120000000e+05
    1.5579847619e-02    1.0120000000e+05
    1.5589798801e-02    1.0120000000e+05
    1.5599753708e-02    1.0120000000e+05
    1.5609986149e-02    1.0120000000e+05
    1.5619941056e-02    1.0120000000e+05
    1.5629895031e-02    1.0120000000e+05
    1.5639850870e-02    1.0120000000e+05
    1.5649812296e-02    1.0120000000e+05
    1.5659779310e-02    1.0120000000e+05
    1.5669751912e-02    1.0120000000e+05
    1.5679726377e-02    1.0120000000e+05
    1.5689976513e-02    1.0120000000e+05
    1.5699952841e-02    1.0120000000e+05
    1.5709931031e-02    1.0120000000e+05
    1.5719911084e-02    1.0120000000e+05
    1.5729894862e-02    1.0120000000e+05
    1.5739882365e-02    1.0120000000e+05
    1.5749871731e-02    1.0120000000e+05
    1.5759861097e-02    1.0120000000e+05
    1.5769852325e-02    1.0120000000e+05
    1.5779843554e-02    1.0120000000e+05
    1.5789838508e-02    1.0120000000e+05
    1.5799839050e-02    1.0120000000e+05
    1.5809843317e-02    1.0120000000e+05
    1.5819849446e-02    1.0120000000e+05
    1.5829855576e-02    1.0120000000e+05
    1.5839859843e-02    1.0120000000e+05
    1.5849867836e-02    1.0120000000e+05
    1.5859881416e-02    1.0120000000e+05
    1.5869898722e-02    1.0120000000e+05
    1.5879921615e-02    1.0120000000e+05
    1.5889942646e-02    1.0120000000e+05
    1.5899963677e-02    1.0120000000e+05
    1.5909986570e-02    1.0120000000e+05
    1.5919733793e-02    1.0120000000e+05
    1.5929765999e-02    1.0120000000e+05
    1.5939800069e-02    1.0120000000e+05
    1.5949837863e-02    1.0120000000e+05
    1.5959875658e-02    1.0120000000e+05
    1.5969915316e-02    1.0120000000e+05
    1.5979956836e-02    1.0120000000e+05
    1.5990000218e-02    1.0120000000e+05
    1.5999767929e-02    1.0120000000e+05
    1.6009818763e-02    1.0120000000e+05
    1.6019875184e-02    1.0120000000e+05
    1.6029931605e-02    1.0120000000e+05
    1.6039988026e-02    1.0120000000e+05
    1.6049766913e-02    1.0120000000e+05
    1.6059827060e-02    1.0120000000e+05
    1.6069892794e-02    1.0120000000e+05
    1.6079964116e-02    1.0120000000e+05
    1.6089757904e-02    1.0120000000e+05
    1.6099831089e-02    1.0120000000e+05
    1.6109904274e-02    1.0120000000e+05
    1.6119979322e-02    1.0120000000e+05
    1.6129780561e-02    1.0120000000e+05
    1.6139864922e-02    1.0120000000e+05
    1.6149954870e-02    1.0120000000e+05
    1.6159767285e-02    1.0120000000e+05
    1.6169859096e-02    1.0120000000e+05
    1.6179952770e-02    1.0120000000e+05
    1.6189767048e-02    1.0120000000e+05
    1.6199866310e-02    1.0120000000e+05
    1.6209971160e-02    1.0120000000e+05
    1.6219800338e-02    1.0120000000e+05
    1.6229912639e-02    1.0120000000e+05
    1.6239745542e-02    1.0120000000e+05
    1.6249859706e-02    1.0120000000e+05
    1.6259975731e-02    1.0120000000e+05
    1.6269814223e-02    1.0120000000e+05
    1.6279937699e-02    1.0120000000e+05
    1.6289785504e-02    1.0120000000e+05
    1.6299916431e-02    1.0120000000e+05
    1.6309766099e-02    1.0120000000e+05
    1.6319897026e-02    1.0120000000e+05
    1.6329750419e-02    1.0120000000e+05
    1.6339886934e-02    1.0120000000e+05
    1.6349745914e-02    1.0120000000e+05
    1.6359889880e-02    1.0120000000e+05
    1.6369752586e-02    1.0120000000e+05
    1.6379894689e-02    1.0120000000e+05
    1.6389755532e-02    1.0120000000e+05
    1.6399899498e-02    1.0120000000e+05
    1.6409767792e-02    1.0120000000e+05
    1.6419921070e-02    1.0120000000e+05
    1.6429794952e-02    1.0120000000e+05
    1.6439950094e-02    1.0120000000e+05
    1.6449823976e-02    1.0120000000e+05
    1.6459977254e-02    1.0120000000e+05
    1.6469852999e-02    1.0120000000e+05
    1.6479728743e-02    1.0120000000e+05
    1.6489885747e-02    1.0120000000e+05
    1.6499754041e-02    1.0120000000e+05
    1.6509899870e-02    1.0120000000e+05
    1.6519756988e-02    1.0120000000e+05
    1.6529891640e-02    1.0120000000e+05
    1.6539737582e-02    1.0120000000e+05
    1.6549866647e-02    1.0120000000e+05
    1.6559844837e-02    1.0120000000e+05
    1.6569709405e-02    1.0120000000e+05
    1.6579745337e-02    1.0120000000e+05
    1.6589947045e-02    1.0120000000e+05
    1.6599699855e-02    1.0120000000e+05
    1.6609910876e-02    1.0120000000e+05
    1.6619959846e-02    1.0120000000e+05
    1.6629837453e-02    1.0120000000e+05
    1.6639847308e-02    1.0120000000e+05
    1.6649996862e-02    1.0120000000e+05
    1.6659945250e-02    1.0120000000e+05
    1.6669683158e-02    1.0120000000e+05
    1.6679884866e-02    1.0120000000e+05
    1.6689861193e-02    1.0120000000e+05
    1.6699962318e-02    1.0120000000e+05
    1.6709817573e-02    1.0120000000e+05
    1.6719782725e-02    1.0120000000e+05
    1.6729857773e-02    1.0120000000e+05
    1.6739666462e-02    1.0120000000e+05
    1.6749925911e-02    1.0120000000e+05
    1.6759919003e-02    1.0120000000e+05
    1.6769992188e-02    1.0120000000e+05
    1.6779761761e-02    1.0120000000e+05
    1.6789956018e-02    1.0120000000e+05
    1.6799794510e-02    1.0120000000e+05
    1.6809925437e-02    1.0120000000e+05
    1.6819925979e-02    1.0120000000e+05
    1.6829917207e-02    1.0120000000e+05
    1.6839925200e-02    1.0120000000e+05
    1.6849959269e-02    1.0120000000e+05
    1.6859741881e-02    1.0120000000e+05
    1.6869798303e-02    1.0120000000e+05
    1.6879864037e-02    1.0120000000e+05
    1.6889942810e-02    1.0120000000e+05
    1.6899760813e-02    1.0120000000e+05
    1.6909847036e-02    1.0120000000e+05
    1.6919935122e-02    1.0120000000e+05
    1.6929758713e-02    1.0120000000e+05
    1.6939850524e-02    1.0120000000e+05
    1.6949944198e-02    1.0120000000e+05
    1.6959771514e-02    1.0120000000e+05
    1.6969867051e-02    1.0120000000e+05
    1.6979962587e-02    1.0120000000e+05
    1.6989791766e-02    1.0120000000e+05
    1.6999887303e-02    1.0120000000e+05
    1.7009984702e-02    1.0120000000e+05
    1.7019813880e-02    1.0120000000e+05
    1.7029909417e-02    1.0120000000e+05
    1.7039740458e-02    1.0120000000e+05
    1.7049834132e-02    1.0120000000e+05
    1.7059929669e-02    1.0120000000e+05
    1.7069758847e-02    1.0120000000e+05
    1.7079854384e-02    1.0120000000e+05
    1.7089949921e-02    1.0120000000e+05
    1.7099779099e-02    1.0120000000e+05
    1.7109872773e-02    1.0120000000e+05
    1.7119966447e-02    1.0120000000e+05
    1.7129795626e-02    1.0120000000e+05
    1.7139889300e-02    1.0120000000e+05
    1.7149982974e-02    1.0120000000e+05
    1.7159810290e-02    1.0120000000e+05
    1.7169903964e-02    1.0120000000e+05
    1.7179997638e-02    1.0120000000e+05
    1.7189824954e-02    1.0120000000e+05
    1.7199916765e-02    1.0120000000e+05
    1.7209744081e-02    1.0120000000e+05
    1.7219835892e-02    1.0120000000e+05
    1.7229927704e-02    1.0120000000e+05
    1.7239753157e-02    1.0120000000e+05
    1.7249843106e-02    1.0120000000e+05
    1.7259934917e-02    1.0120000000e+05
    1.7269760370e-02    1.0120000000e+05
    1.7279850319e-02    1.0120000000e+05
    1.7289940268e-02    1.0120000000e+05
    1.7299765721e-02    1.0120000000e+05
    1.7309855670e-02    1.0120000000e+05
    1.7319943756e-02    1.0120000000e+05
    1.7329769209e-02    1.0120000000e+05
    1.7339857295e-02    1.0120000000e+05
    1.7349947244e-02    1.0120000000e+05
    1.7359768972e-02    1.0120000000e+05
    1.7369858921e-02    1.0120000000e+05
    1.7379950732e-02    1.0120000000e+05
    1.7389776185e-02    1.0120000000e+05
    1.7399867997e-02    1.0120000000e+05
    1.7409961671e-02    1.0120000000e+05
    1.7419790849e-02    1.0120000000e+05
    1.7429890111e-02    1.0120000000e+05
    1.7439993098e-02    1.0120000000e+05
    1.7449833453e-02    1.0120000000e+05
    1.7459940165e-02    1.0120000000e+05
    1.7469782382e-02    1.0120000000e+05
    1.7479902133e-02    1.0120000000e+05
    1.7489768565e-02    1.0120000000e+05
    1.7499908805e-02    1.0120000000e+05
    1.7509790137e-02    1.0120000000e+05
    1.7519945279e-02    1.0120000000e+05
    1.7529835925e-02    1.0120000000e+05
    1.7539741471e-02    1.0120000000e+05
    1.7549939454e-02    1.0120000000e+05
    1.7559889704e-02    1.0120000000e+05
    1.7569854856e-02    1.0120000000e+05
    1.7579827458e-02    1.0120000000e+05
    1.7589803785e-02    1.0120000000e+05
    1.7599783838e-02    1.0120000000e+05
    1.7609786242e-02    1.0120000000e+05
    1.7619816586e-02    1.0120000000e+05
    1.7629871145e-02    1.0120000000e+05
    1.7639933154e-02    1.0120000000e+05
    1.7649998888e-02    1.0120000000e+05
    1.7659801990e-02    1.0120000000e+05
    1.7669890076e-02    1.0120000000e+05
    1.7679993063e-02    1.0120000000e+05
    1.7689848319e-02    1.0120000000e+05
    1.7699725926e-02    1.0120000000e+05
    1.7709892243e-02    1.0120000000e+05
    1.7719795927e-02    1.0120000000e+05
    1.7729982734e-02    1.0120000000e+05
    1.7739903182e-02    1.0120000000e+05
    1.7749831080e-02    1.0120000000e+05
    1.7759766430e-02    1.0120000000e+05
    1.7769986764e-02    1.0120000000e+05
    1.7779940739e-02    1.0120000000e+05
    1.7789909616e-02    1.0120000000e+05
    1.7799891531e-02    1.0120000000e+05
    1.7809882760e-02    1.0120000000e+05
    1.7819875851e-02    1.0120000000e+05
    1.7829874530e-02    1.0120000000e+05
    1.7839875072e-02    1.0120000000e+05
    1.7849881202e-02    1.0120000000e+05
    1.7859892920e-02    1.0120000000e+05
    1.7869915813e-02    1.0120000000e+05
    1.7879946157e-02    1.0120000000e+05
    1.7889982089e-02    1.0120000000e+05
    1.7899742350e-02    1.0120000000e+05
    1.7909783870e-02    1.0120000000e+05
    1.7919830978e-02    1.0120000000e+05
    1.7929885536e-02    1.0120000000e+05
    1.7939943820e-02    1.0120000000e+05
    1.7949724570e-02    1.0120000000e+05
    1.7959786579e-02    1.0120000000e+05
    1.7969852313e-02    1.0120000000e+05
    1.7979919910e-02    1.0120000000e+05
    1.7989989370e-02    1.0120000000e+05
    1.7999779433e-02    1.0120000000e+05
    1.8009850755e-02    1.0120000000e+05
    1.8019920215e-02    1.0120000000e+05
    1.8029989675e-02    1.0120000000e+05
    1.8039779738e-02    1.0120000000e+05
    1.8049849197e-02    1.0120000000e+05
    1.8059920520e-02    1.0120000000e+05
    1.8069991842e-02    1.0120000000e+05
    1.8079785630e-02    1.0120000000e+05
    1.8089860678e-02    1.0120000000e+05
    1.8099935725e-02    1.0120000000e+05
    1.8109731376e-02    1.0120000000e+05
    1.8119806424e-02    1.0120000000e+05
    1.8129883334e-02    1.0120000000e+05
    1.8139962107e-02    1.0120000000e+05
    1.8149761483e-02    1.0120000000e+05
    1.8159842119e-02    1.0120000000e+05
    1.8169922754e-02    1.0120000000e+05
    1.8179725856e-02    1.0120000000e+05
    1.8189808354e-02    1.0120000000e+05
    1.8199892715e-02    1.0120000000e+05
    1.8209978938e-02    1.0120000000e+05
    1.8219785765e-02    1.0120000000e+05
    1.8229873851e-02    1.0120000000e+05
    1.8239963800e-02    1.0120000000e+05
    1.8249774352e-02    1.0120000000e+05
    1.8259864300e-02    1.0120000000e+05
    1.8269957975e-02    1.0120000000e+05
    1.8279770389e-02    1.0120000000e+05
    1.8289864063e-02    1.0120000000e+05
    1.8299959600e-02    1.0120000000e+05
    1.8309775740e-02    1.0120000000e+05
    1.8319871277e-02    1.0120000000e+05
    1.8329970539e-02    1.0120000000e+05
    1.8339788541e-02    1.0120000000e+05
    1.8349887803e-02    1.0120000000e+05
    1.8359987065e-02    1.0120000000e+05
    1.8369806930e-02    1.0120000000e+05
    1.8379908055e-02    1.0120000000e+05
    1.8389727920e-02    1.0120000000e+05
    1.8399830908e-02    1.0120000000e+05
    1.8409932032e-02    1.0120000000e+05
    1.8419755623e-02    1.0120000000e+05
    1.8429858610e-02    1.0120000000e+05
    1.8439961597e-02    1.0120000000e+05
    1.8449785188e-02    1.0120000000e+05
    1.8459888175e-02    1.0120000000e+05
    1.8469993025e-02    1.0120000000e+05
    1.8479816616e-02    1.0120000000e+05
    1.8489921466e-02    1.0120000000e+05
    1.8499746919e-02    1.0120000000e+05
    1.8509851769e-02    1.0120000000e+05
    1.8519956619e-02    1.0120000000e+05
    1.8529782072e-02    1.0120000000e+05
    1.8539888784e-02    1.0120000000e+05
    1.8549993634e-02    1.0120000000e+05
    1.8559819087e-02    1.0120000000e+05
    1.8569925800e-02    1.0120000000e+05
    1.8579751253e-02    1.0120000000e+05
    1.8589857966e-02    1.0120000000e+05
    1.8599964678e-02    1.0120000000e+05
    1.8609790131e-02    1.0120000000e+05
    1.8619896844e-02    1.0120000000e+05
    1.8629722297e-02    1.0120000000e+05
    1.8639829010e-02    1.0120000000e+05
    1.8649935722e-02    1.0120000000e+05
    1.8659761176e-02    1.0120000000e+05
    1.8669867888e-02    1.0120000000e+05
    1.8679974601e-02    1.0120000000e+05
    1.8689801916e-02    1.0120000000e+05
    1.8699908629e-02    1.0120000000e+05
    1.8709735945e-02    1.0120000000e+05
    1.8719842657e-02    1.0120000000e+05
    1.8729951233e-02    1.0120000000e+05
    1.8739776686e-02    1.0120000000e+05
    1.8749885261e-02    1.0120000000e+05
    1.8759991974e-02    1.0120000000e+05
    1.8769819289e-02    1.0120000000e+05
    1.8779927865e-02    1.0120000000e+05
    1.8789753318e-02    1.0120000000e+05
    1.8799861893e-02    1.0120000000e+05
    1.8809970468e-02    1.0120000000e+05
    1.8819797784e-02    1.0120000000e+05
    1.8829906359e-02    1.0120000000e+05
    1.8839733675e-02    1.0120000000e+05
    1.8849842250e-02    1.0120000000e+05
    1.8859950826e-02    1.0120000000e+05
    1.8869780004e-02    1.0120000000e+05
    1.8879888579e-02    1.0120000000e+05
    1.8889997154e-02    1.0120000000e+05
    1.8899826333e-02    1.0120000000e+05
    1.8909936771e-02    1.0120000000e+05
    1.8919764087e-02    1.0120000000e+05
    1.8929874524e-02    1.0120000000e+05
    1.8939984962e-02    1.0120000000e+05
    1.8949814141e-02    1.0120000000e+05
    1.8959924579e-02    1.0120000000e+05
    1.8969753757e-02    1.0120000000e+05
    1.8979864195e-02    1.0120000000e+05
    1.8989976496e-02    1.0120000000e+05
    1.8999807537e-02    1.0120000000e+05
    1.9009917974e-02    1.0120000000e+05
    1.9019750878e-02    1.0120000000e+05
    1.9029863179e-02    1.0120000000e+05
    1.9039975479e-02    1.0120000000e+05
    1.9049806520e-02    1.0120000000e+05
    1.9059918821e-02    1.0120000000e+05
    1.9069751725e-02    1.0120000000e+05
    1.9079864025e-02    1.0120000000e+05
    1.9089978188e-02    1.0120000000e+05
    1.9099812955e-02    1.0120000000e+05
    1.9109927118e-02    1.0120000000e+05
    1.9119761884e-02    1.0120000000e+05
    1.9129876047e-02    1.0120000000e+05
    1.9139992073e-02    1.0120000000e+05
    1.9149826840e-02    1.0120000000e+05
    1.9159942865e-02    1.0120000000e+05
    1.9169777632e-02    1.0120000000e+05
    1.9179895520e-02    1.0120000000e+05
    1.9189732149e-02    1.0120000000e+05
    1.9199850038e-02    1.0120000000e+05
    1.9209967926e-02    1.0120000000e+05
    1.9219804555e-02    1.0120000000e+05
    1.9229924306e-02    1.0120000000e+05
    1.9239762798e-02    1.0120000000e+05
    1.9249882549e-02    1.0120000000e+05
    1.9259721041e-02    1.0120000000e+05
    1.9269840792e-02    1.0120000000e+05
    1.9279962406e-02    1.0120000000e+05
    1.9289802760e-02    1.0120000000e+05
    1.9299926236e-02    1.0120000000e+05
    1.9309766591e-02    1.0120000000e+05
    1.9319890067e-02    1.0120000000e+05
    1.9329732284e-02    1.0120000000e+05
    1.9339855760e-02    1.0120000000e+05
    1.9349979237e-02    1.0120000000e+05
    1.9359823316e-02    1.0120000000e+05
    1.9369948655e-02    1.0120000000e+05
    1.9379792735e-02    1.0120000000e+05
    1.9389919937e-02    1.0120000000e+05
    1.9399764016e-02    1.0120000000e+05
    1.9409891218e-02    1.0120000000e+05
    1.9419737160e-02    1.0120000000e+05
    1.9429866225e-02    1.0120000000e+05
    1.9439993426e-02    1.0120000000e+05
[...]
    1.1513978988e-01    1.0123041406e+05
    1.1514972150e-01    1.0123040625e+05
    1.1515996605e-01    1.0123039844e+05
    1.1516989768e-01    1.0123037500e+05
    1.1517983675e-01    1.0123035156e+05
    1.1518976837e-01    1.0123034375e+05
    1.1519970000e-01    1.0123033594e+05
    1.1520994455e-01    1.0123031250e+05
    1.1521987617e-01    1.0123028906e+05
    1.1522980779e-01    1.0123027344e+05
    1.1523973942e-01    1.0123025781e+05
    1.1524998397e-01    1.0123024219e+05
    1.1525991559e-01    1.0123022656e+05
    1.1526984721e-01    1.0123021094e+05
    1.1527978629e-01    1.0123018750e+05
    1.1528971791e-01    1.0123016406e+05
    1.1529996246e-01    1.0123015625e+05
    1.1530989408e-01    1.0123013281e+05
    1.1531982571e-01    1.0123011719e+05
    1.1532975733e-01    1.0123009375e+05
    1.1533968896e-01    1.0123008594e+05
    1.1534993351e-01    1.0123005469e+05
    1.1535986513e-01    1.0123003906e+05
    1.1536979675e-01    1.0123002344e+05
    1.1537972838e-01    1.0123000000e+05
    1.1538997293e-01    1.0122997656e+05
    1.1539990455e-01    1.0122996875e+05
    1.1540984362e-01    1.0122994531e+05
    1.1541977525e-01    1.0122992969e+05
    1.1542970687e-01    1.0122991406e+05
    1.1543995142e-01    1.0122989844e+05
    1.1544988304e-01    1.0122987500e+05
    1.1545981467e-01    1.0122985156e+05
    1.1546974629e-01    1.0122983594e+05
    1.1547999084e-01    1.0122982031e+05
    1.1548992246e-01    1.0122978906e+05
    1.1549985409e-01    1.0122978125e+05
    1.1550979316e-01    1.0122977344e+05
    1.1551972479e-01    1.0122975000e+05
    1.1552996933e-01    1.0122972656e+05
    1.1553990096e-01    1.0122971094e+05
    1.1554983258e-01    1.0122969531e+05
    1.1555976421e-01    1.0122967969e+05
    1.1556969583e-01    1.0122966406e+05
    1.1557994038e-01    1.0122964844e+05
    1.1558987200e-01    1.0122962500e+05
    1.1559980363e-01    1.0122960156e+05
    1.1560974270e-01    1.0122959375e+05
    1.1561997980e-01    1.0122958594e+05
    1.1562991887e-01    1.0122956250e+05
    1.1563985050e-01    1.0122953906e+05
    1.1564978212e-01    1.0122953125e+05
    1.1565971375e-01    1.0122950781e+05
    1.1566995829e-01    1.0122949219e+05
    1.1567988992e-01    1.0122947656e+05
    1.1568982154e-01    1.0122946094e+05
    1.1569975317e-01    1.0122944531e+05
    1.1570999771e-01    1.0122942969e+05
    1.1571992934e-01    1.0122941406e+05
    1.1572986841e-01    1.0122940625e+05
    1.1573980004e-01    1.0122939844e+05
    1.1574973166e-01    1.0122937500e+05
    1.1575997621e-01    1.0122935156e+05
    1.1576990783e-01    1.0122934375e+05
    1.1577983946e-01    1.0122933594e+05
    1.1578977108e-01    1.0122932031e+05
    1.1579970270e-01    1.0122930469e+05
    1.1580994725e-01    1.0122928906e+05
    1.1581987888e-01    1.0122927344e+05
    1.1582981795e-01    1.0122925781e+05
    1.1583974957e-01    1.0122925000e+05
    1.1584999412e-01    1.0122922656e+05
    1.1585992575e-01    1.0122921875e+05
    1.1586985737e-01    1.0122921094e+05
    1.1587978899e-01    1.0122918750e+05
    1.1588972062e-01    1.0122917969e+05
    1.1589996517e-01    1.0122916406e+05
    1.1590989679e-01    1.0122914844e+05
    1.1591982841e-01    1.0122913281e+05
    1.1592976749e-01    1.0122912500e+05
    1.1593969911e-01    1.0122910156e+05
    1.1594994366e-01    1.0122909375e+05
    1.1595987529e-01    1.0122908594e+05
    1.1596980691e-01    1.0122906250e+05
    1.1597973853e-01    1.0122905469e+05
    1.1598998308e-01    1.0122903906e+05
    1.1599991471e-01    1.0122902344e+05
    1.1600984633e-01    1.0122900781e+05
    1.1601977795e-01    1.0122900000e+05
    1.1602971703e-01    1.0122897656e+05
    1.1603995413e-01    1.0122896875e+05
    1.1604989320e-01    1.0122896094e+05
    1.1605982482e-01    1.0122894531e+05
    1.1606975645e-01    1.0122892969e+05
    1.1608000100e-01    1.0122891406e+05
    1.1608993262e-01    1.0122890625e+05
    1.1609986424e-01    1.0122889844e+05
    1.1610979587e-01    1.0122887500e+05
    1.1611972749e-01    1.0122885156e+05
    1.1612997204e-01    1.0122884375e+05
    1.1613990366e-01    1.0122883594e+05
    1.1614984274e-01    1.0122882031e+05
    1.1615977436e-01    1.0122880469e+05
    1.1616970599e-01    1.0122878906e+05
    1.1617995054e-01    1.0122877344e+05
    1.1618988216e-01    1.0122877344e+05
    1.1619981378e-01    1.0122875000e+05
    1.1620974541e-01    1.0122872656e+05
    1.1621998996e-01    1.0122871875e+05
    1.1622992158e-01    1.0122871094e+05
    1.1623985320e-01    1.0122868750e+05
    1.1624979228e-01    1.0122867969e+05
    1.1625972390e-01    1.0122866406e+05
    1.1626996845e-01    1.0122864844e+05
    1.1627990007e-01    1.0122863281e+05
    1.1628983170e-01    1.0122861719e+05
    1.1629976332e-01    1.0122860156e+05
    1.1630969495e-01    1.0122858594e+05
    1.1631993949e-01    1.0122857031e+05
    1.1632987112e-01    1.0122856250e+05
    1.1633981019e-01    1.0122853906e+05
    1.1634974182e-01    1.0122853125e+05
    1.1635998636e-01    1.0122852344e+05
    1.1636991799e-01    1.0122850000e+05
    1.1637984961e-01    1.0122847656e+05
    1.1638978124e-01    1.0122846875e+05
    1.1639971286e-01    1.0122846094e+05
    1.1640995741e-01    1.0122843750e+05
    1.1641988903e-01    1.0122841406e+05
    1.1642982066e-01    1.0122840625e+05
    1.1643975973e-01    1.0122839844e+05
    1.1644999683e-01    1.0122838281e+05
    1.1645993590e-01    1.0122836719e+05
    1.1646986753e-01    1.0122835156e+05
    1.1647979915e-01    1.0122833594e+05
    1.1648973078e-01    1.0122832031e+05
    1.1649997532e-01    1.0122830469e+05
    1.1650990695e-01    1.0122828906e+05
    1.1651983857e-01    1.0122827344e+05
    1.1652977020e-01    1.0122825781e+05
    1.1653970927e-01    1.0122824219e+05
    1.1654994637e-01    1.0122822656e+05
    1.1655988544e-01    1.0122821094e+05
    1.1656981707e-01    1.0122819531e+05
    1.1657974869e-01    1.0122817969e+05
    1.1658999324e-01    1.0122816406e+05
    1.1659992486e-01    1.0122815625e+05
    1.1660985649e-01    1.0122814844e+05
    1.1661978811e-01    1.0122812500e+05
    1.1662972718e-01    1.0122810156e+05
    1.1663996428e-01    1.0122809375e+05
    1.1664990336e-01    1.0122808594e+05
    1.1665983498e-01    1.0122806250e+05
    1.1666976660e-01    1.0122803906e+05
    1.1667969823e-01    1.0122803125e+05
    1.1668994278e-01    1.0122802344e+05
    1.1669987440e-01    1.0122800000e+05
    1.1670980603e-01    1.0122797656e+05
    1.1671973765e-01    1.0122796875e+05
    1.1672998220e-01    1.0122796094e+05
    1.1673991382e-01    1.0122793750e+05
    1.1674985290e-01    1.0122792969e+05
    1.1675978452e-01    1.0122791406e+05
    1.1676971614e-01    1.0122789844e+05
    1.1677996069e-01    1.0122788281e+05
    1.1678989232e-01    1.0122786719e+05
    1.1679982394e-01    1.0122785156e+05
    1.1680975556e-01    1.0122783594e+05
    1.1681968719e-01    1.0122782031e+05
    1.1682993174e-01    1.0122780469e+05
    1.1683986336e-01    1.0122778906e+05
    1.1684980243e-01    1.0122778125e+05
    1.1685973406e-01    1.0122777344e+05
    1.1686997861e-01    1.0122775000e+05
    1.1687991023e-01    1.0122772656e+05
    1.1688984185e-01    1.0122771875e+05
    1.1689977348e-01    1.0122771094e+05
    1.1690970510e-01    1.0122768750e+05
    1.1691994965e-01    1.0122767969e+05
    1.1692988127e-01    1.0122766406e+05
    1.1693981290e-01    1.0122764844e+05
    1.1694975197e-01    1.0122763281e+05
    1.1695998907e-01    1.0122761719e+05
    1.1696992815e-01    1.0122760156e+05
    1.1697985977e-01    1.0122759375e+05
    1.1698979139e-01    1.0122758594e+05
    1.1699972302e-01    1.0122756250e+05
    1.1700996757e-01    1.0122753906e+05
    1.1701989919e-01    1.0122753906e+05
    1.1702983081e-01    1.0122752344e+05
    1.1703976989e-01    1.0122750781e+05
    1.1704970151e-01    1.0122750000e+05
    1.1705994606e-01    1.0122747656e+05
    1.1706987768e-01    1.0122746875e+05
    1.1707980931e-01    1.0122746094e+05
    1.1708974093e-01    1.0122744531e+05
    1.1709998548e-01    1.0122742969e+05
    1.1710991710e-01    1.0122741406e+05
    1.1711984873e-01    1.0122740625e+05
    1.1712978035e-01    1.0122739844e+05
    1.1713971943e-01    1.0122737500e+05
    1.1714995652e-01    1.0122735156e+05
    1.1715989560e-01    1.0122734375e+05
    1.1716982722e-01    1.0122733594e+05
    1.1717975885e-01    1.0122732031e+05
    1.1718969047e-01    1.0122730469e+05
    1.1719993502e-01    1.0122728906e+05
    1.1720986664e-01    1.0122728125e+05
    1.1721979827e-01    1.0122727344e+05
    1.1722972989e-01    1.0122725000e+05
    1.1723997444e-01    1.0122724219e+05
    1.1724990606e-01    1.0122722656e+05
    1.1725984514e-01    1.0122721094e+05
    1.1726977676e-01    1.0122719531e+05
    1.1727970839e-01    1.0122718750e+05
    1.1728995293e-01    1.0122716406e+05
    1.1729988456e-01    1.0122715625e+05
    1.1730981618e-01    1.0122714844e+05
    1.1731974781e-01    1.0122713281e+05
    1.1732999235e-01    1.0122711719e+05
    1.1733992398e-01    1.0122710156e+05
    1.1734986305e-01    1.0122709375e+05
    1.1735979468e-01    1.0122708594e+05
    1.1736972630e-01    1.0122707031e+05
    1.1737997085e-01    1.0122705469e+05
    1.1738990247e-01    1.0122703906e+05
    1.1739983410e-01    1.0122703125e+05
    1.1740976572e-01    1.0122702344e+05
    1.1741969734e-01    1.0122700781e+05
    1.1742994189e-01    1.0122699219e+05
    1.1743987352e-01    1.0122697656e+05
    1.1744981259e-01    1.0122696875e+05
    1.1745974422e-01    1.0122696094e+05
    1.1746998876e-01    1.0122694531e+05
    1.1747992039e-01    1.0122692969e+05
    1.1748985201e-01    1.0122691406e+05
    1.1749978364e-01    1.0122690625e+05
    1.1750971526e-01    1.0122689844e+05
    1.1751995981e-01    1.0122688281e+05
    1.1752989143e-01    1.0122686719e+05
    1.1753982306e-01    1.0122685156e+05
    1.1754976213e-01    1.0122684375e+05
    1.1755969375e-01    1.0122683594e+05
    1.1756993830e-01    1.0122682031e+05
    1.1757986993e-01    1.0122680469e+05
    1.1758980155e-01    1.0122678906e+05
    1.1759973317e-01    1.0122678125e+05
    1.1760997772e-01    1.0122677344e+05
    1.1761990935e-01    1.0122675781e+05
    1.1762984097e-01    1.0122674219e+05
    1.1763978004e-01    1.0122672656e+05
    1.1764971167e-01    1.0122671875e+05
    1.1765995622e-01    1.0122671094e+05
    1.1766988784e-01    1.0122669531e+05
    1.1767981946e-01    1.0122667969e+05
    1.1768975109e-01    1.0122666406e+05
    1.1769999564e-01    1.0122665625e+05
    1.1770992726e-01    1.0122664844e+05
    1.1771985888e-01    1.0122663281e+05
    1.1772979051e-01    1.0122661719e+05
    1.1773972958e-01    1.0122660156e+05
    1.1774996668e-01    1.0122659375e+05
    1.1775990576e-01    1.0122658594e+05
    1.1776983738e-01    1.0122657031e+05
    1.1777976900e-01    1.0122655469e+05
    1.1778970063e-01    1.0122653906e+05
    1.1779994518e-01    1.0122653125e+05
    1.1780987680e-01    1.0122652344e+05
    1.1781980842e-01    1.0122650781e+05
    1.1782974005e-01    1.0122650000e+05
    1.1783998460e-01    1.0122647656e+05
    1.1784991622e-01    1.0122646875e+05
    1.1785985529e-01    1.0122646094e+05
    1.1786978692e-01    1.0122644531e+05
    1.1787971854e-01    1.0122643750e+05
    1.1788996309e-01    1.0122641406e+05
    1.1789989471e-01    1.0122641406e+05
    1.1790982634e-01    1.0122639844e+05
    1.1791975796e-01    1.0122639844e+05
    1.1792969704e-01    1.0122637500e+05
    1.1793993413e-01    1.0122636719e+05
    1.1794987321e-01    1.0122635156e+05
    1.1795980483e-01    1.0122634375e+05
    1.1796973646e-01    1.0122633594e+05
    1.1797998101e-01    1.0122632031e+05
    1.1798991263e-01    1.0122630469e+05
    1.1799984425e-01    1.0122628906e+05
    1.1800977588e-01    1.0122628906e+05
    1.1801970750e-01    1.0122627344e+05
    1.1802995205e-01    1.0122627344e+05
    1.1803988367e-01    1.0122625000e+05
    1.1804982275e-01    1.0122624219e+05
    1.1805975437e-01    1.0122622656e+05
    1.1806999892e-01    1.0122621875e+05
    1.1807993054e-01    1.0122621094e+05
    1.1808986217e-01    1.0122619531e+05
    1.1809979379e-01    1.0122617969e+05
    1.1810972542e-01    1.0122616406e+05
    1.1811996996e-01    1.0122615625e+05
    1.1812990159e-01    1.0122614844e+05
    1.1813983321e-01    1.0122614844e+05
    1.1814977229e-01    1.0122612500e+05
    1.1815970391e-01    1.0122611719e+05
    1.1816994846e-01    1.0122610156e+05
    1.1817988008e-01    1.0122609375e+05
    1.1818981171e-01    1.0122608594e+05
    1.1819974333e-01    1.0122607031e+05
    1.1820998788e-01    1.0122606250e+05
    1.1821991950e-01    1.0122603906e+05
    1.1822985113e-01    1.0122603906e+05
    1.1823979020e-01    1.0122602344e+05
    1.1824972183e-01    1.0122602344e+05
    1.1825996637e-01    1.0122600000e+05
    1.1826989800e-01    1.0122599219e+05
    1.1827982962e-01    1.0122597656e+05
    1.1828976125e-01    1.0122596875e+05
    1.1829969287e-01    1.0122596094e+05
    1.1830993742e-01    1.0122594531e+05
    1.1831986904e-01    1.0122593750e+05
    1.1832980067e-01    1.0122592969e+05
    1.1833973974e-01    1.0122591406e+05
    1.1834997684e-01    1.0122590625e+05
    1.1835991591e-01    1.0122589844e+05
    1.1836984754e-01    1.0122588281e+05
    1.1837977916e-01    1.0122586719e+05
    1.1838971078e-01    1.0122585156e+05
    1.1839995533e-01    1.0122585156e+05
    1.1840988696e-01    1.0122583594e+05
    1.1841981858e-01    1.0122583594e+05
    1.1842975020e-01    1.0122582031e+05
    1.1843999475e-01    1.0122580469e+05
    1.1844992638e-01    1.0122578906e+05
    1.1845986545e-01    1.0122578906e+05
    1.1846979707e-01    1.0122577344e+05
    1.1847972870e-01    1.0122577344e+05
    1.1848997325e-01    1.0122575000e+05
    1.1849990487e-01    1.0122574219e+05
    1.1850983649e-01    1.0122572656e+05
    1.1851976812e-01    1.0122571875e+05
    1.1852970719e-01    1.0122571094e+05
    1.1853994429e-01    1.0122571094e+05
    1.1854988337e-01    1.0122569531e+05
    1.1855981499e-01    1.0122567969e+05
    1.1856974661e-01    1.0122566406e+05
    1.1857999116e-01    1.0122566406e+05
    1.1858992279e-01    1.0122564844e+05
    1.1859985441e-01    1.0122564844e+05
    1.1860978603e-01    1.0122563281e+05
    1.1861971766e-01    1.0122561719e+05
    1.1862996221e-01    1.0122560156e+05
    1.1863989383e-01    1.0122560156e+05
    1.1864983290e-01    1.0122558594e+05
    1.1865976453e-01    1.0122558594e+05
    1.1866969615e-01    1.0122557031e+05
    1.1867994070e-01    1.0122556250e+05
    1.1868987232e-01    1.0122553906e+05
    1.1869980395e-01    1.0122553906e+05
    1.1870973557e-01    1.0122553125e+05
    1.1871998012e-01    1.0122552344e+05
    1.1872991174e-01    1.0122552344e+05
    1.1873984337e-01    1.0122550000e+05
    1.1874978244e-01    1.0122549219e+05
    1.1875971407e-01    1.0122547656e+05
    1.1876995862e-01    1.0122546875e+05
    1.1877989024e-01    1.0122546094e+05
    1.1878982186e-01    1.0122546094e+05
    1.1879975349e-01    1.0122544531e+05
    1.1880999804e-01    1.0122542969e+05
    1.1881992966e-01    1.0122541406e+05
    1.1882986128e-01    1.0122541406e+05
    1.1883980036e-01    1.0122540625e+05
    1.1884973198e-01    1.0122539844e+05
    1.1885997653e-01    1.0122538281e+05
    1.1886990815e-01    1.0122537500e+05
    1.1887983978e-01    1.0122536719e+05
    1.1888977140e-01    1.0122535156e+05
    1.1889970303e-01    1.0122535156e+05
    1.1890994757e-01    1.0122533594e+05
    1.1891987920e-01    1.0122533594e+05
    1.1892981082e-01    1.0122532031e+05
    1.1893974990e-01    1.0122531250e+05
    1.1894998699e-01    1.0122528906e+05
    1.1895992607e-01    1.0122528906e+05
    1.1896985769e-01    1.0122528125e+05
    1.1897978932e-01    1.0122527344e+05
    1.1898972094e-01    1.0122527344e+05
    1.1899996549e-01    1.0122525781e+05
    1.1900989711e-01    1.0122525000e+05
    1.1901982874e-01    1.0122522656e+05
    1.1902976781e-01    1.0122522656e+05
    1.1903969944e-01    1.0122521875e+05
    1.1904994398e-01    1.0122521094e+05
    1.1905987561e-01    1.0122521094e+05
    1.1906980723e-01    1.0122519531e+05
    1.1907973886e-01    1.0122517969e+05
    1.1908998340e-01    1.0122516406e+05
    1.1909991503e-01    1.0122516406e+05
    1.1910984665e-01    1.0122515625e+05
    1.1911977828e-01    1.0122514844e+05
    1.1912971735e-01    1.0122513281e+05
    1.1913995445e-01    1.0122512500e+05
    1.1914989352e-01    1.0122511719e+05
    1.1915982515e-01    1.0122510156e+05
    1.1916975677e-01    1.0122510156e+05
    1.1918000132e-01    1.0122509375e+05
    1.1918993294e-01    1.0122508594e+05
    1.1919986457e-01    1.0122508594e+05
    1.1920979619e-01    1.0122506250e+05
    1.1921973526e-01    1.0122505469e+05
    1.1922997236e-01    1.0122503906e+05
    1.1923991144e-01    1.0122503906e+05
    1.1924984306e-01    1.0122503125e+05
    1.1925977468e-01    1.0122502344e+05
    1.1926970631e-01    1.0122500781e+05
    1.1927995086e-01    1.0122500000e+05
    1.1928988248e-01    1.0122499219e+05
    1.1929981411e-01    1.0122497656e+05
    1.1930974573e-01    1.0122497656e+05
    1.1931999028e-01    1.0122496094e+05
    1.1932992190e-01    1.0122496094e+05
    1.1933986098e-01    1.0122494531e+05
    1.1934979260e-01    1.0122493750e+05
    1.1935972422e-01    1.0122492969e+05
    1.1936996877e-01    1.0122491406e+05
    1.1937990040e-01    1.0122490625e+05
    1.1938983202e-01    1.0122489844e+05
    1.1939976364e-01    1.0122489844e+05
    1.1940969527e-01    1.0122487500e+05
    1.1941993982e-01    1.0122486719e+05
    1.1942987889e-01    1.0122485156e+05
    1.1943981051e-01    1.0122484375e+05
    1.1944974214e-01    1.0122483594e+05
    1.1945998669e-01    1.0122483594e+05
    1.1946991831e-01    1.0122482031e+05
    1.1947984993e-01    1.0122481250e+05
    1.1948978156e-01    1.0122478906e+05
    1.1949971318e-01    1.0122478906e+05
    1.1950995773e-01    1.0122478125e+05
    1.1951988935e-01    1.0122477344e+05
    1.1952982843e-01    1.0122475781e+05
    1.1953976005e-01    1.0122475000e+05
    1.1954969168e-01    1.0122472656e+05
    1.1955993623e-01    1.0122472656e+05
    1.1956986785e-01    1.0122471094e+05
    1.1957979947e-01    1.0122471094e+05
    1.1958973110e-01    1.0122468750e+05
    1.1959997565e-01    1.0122467969e+05
    1.1960990727e-01    1.0122466406e+05
    1.1961984634e-01    1.0122465625e+05
    1.1962977797e-01    1.0122464844e+05
    1.1963970959e-01    1.0122463281e+05
    1.1964995414e-01    1.0122462500e+05
    1.1965988576e-01    1.0122460156e+05
    1.1966981739e-01    1.0122460156e+05
    1.1967974901e-01    1.0122459375e+05
    1.1968999356e-01    1.0122458594e+05
    1.1969992518e-01    1.0122457031e+05
    1.1970985681e-01    1.0122455469e+05
    1.1971979588e-01    1.0122453906e+05
    1.1972972751e-01    1.0122453125e+05
    1.1973997205e-01    1.0122452344e+05
    1.1974990368e-01    1.0122450781e+05
    1.1975983530e-01    1.0122449219e+05
    1.1976976693e-01    1.0122447656e+05
    1.1977969855e-01    1.0122446875e+05
    1.1978994310e-01    1.0122446094e+05
    1.1979987472e-01    1.0122446094e+05
    1.1980981380e-01    1.0122443750e+05
    1.1981974542e-01    1.0122442969e+05
    1.1982998997e-01    1.0122441406e+05
    1.1983992159e-01    1.0122439844e+05
    1.1984985322e-01    1.0122439844e+05
    1.1985978484e-01    1.0122437500e+05
    1.1986971647e-01    1.0122436719e+05
    1.1987996101e-01    1.0122435156e+05
    1.1988989264e-01    1.0122433594e+05
    1.1989982426e-01    1.0122433594e+05
    1.1990976334e-01    1.0122431250e+05
    1.1991969496e-01    1.0122430469e+05
    1.1992993951e-01    1.0122428906e+05
    1.1993987113e-01    1.0122428125e+05
    1.1994980276e-01    1.0122427344e+05
    1.1995973438e-01    1.0122425781e+05
    1.1996997893e-01    1.0122424219e+05
    1.1997991055e-01    1.0122422656e+05
    1.1998984218e-01    1.0122421875e+05
    1.1999978125e-01    1.0122421094e+05
endcurve
