Curveplot
LS-DYNA keyword deck by LS-PrePost                          
Time
Pressure
Defined Connection
Pressure @ 53 #pts=14001
* Minval=     9.7601289062e+04 at time=         0.0820398852
* Maxval=     1.0984628906e+05 at time=         0.0651997179
    0.0000000000e+00    1.0120000000e+05
    9.9483822851e-06    1.0120000000e+05
    1.9980911020e-05    1.0120000000e+05
    2.9948851079e-05    1.0120000000e+05
    3.9983235183e-05    1.0120000000e+05
    4.9942922487e-05    1.0120000000e+05
    5.9982470702e-05    1.0120000000e+05
    6.9984424044e-05    1.0120000000e+05
    7.9966623161e-05    1.0120000000e+05
    8.9997505711e-05    1.0120000000e+05
    9.9988843431e-05    1.0120000000e+05
    1.0999720689e-04    1.0120000000e+05
    1.1993460066e-04    1.0120000000e+05
    1.2993789278e-04    1.0120000000e+05
    1.3999963994e-04    1.0120000000e+05
    1.4995152014e-04    1.0120000000e+05
    1.5994007117e-04    1.0120000000e+05
    1.6995739134e-04    1.0120000000e+05
    1.7999512784e-04    1.0120000000e+05
    1.8995802384e-04    1.0120000000e+05
    1.9992096350e-04    1.0120000000e+05
    2.0996468083e-04    1.0120000000e+05
    2.1999335149e-04    1.0120000000e+05
    2.2999769135e-04    1.0120000000e+05
    2.3996813979e-04    1.0120000000e+05
    2.4998697336e-04    1.0120000000e+05
    2.5994103635e-04    1.0120000000e+05
    2.6991538471e-04    1.0120000000e+05
    2.7990905801e-04    1.0120000000e+05
    2.8992004809e-04    1.0120000000e+05
    2.9994660872e-04    1.0120000000e+05
    3.0998661532e-04    1.0120000000e+05
    3.1993520679e-04    1.0120000000e+05
    3.2999581890e-04    1.0120000000e+05
    3.3995916601e-04    1.0120000000e+05
    3.4992658766e-04    1.0120000000e+05
    3.5989651224e-04    1.0120000000e+05
    3.6997644929e-04    1.0120000000e+05
    3.7994762533e-04    1.0120000000e+05
    3.8991612382e-04    1.0120000000e+05
    3.9999291766e-04    1.0120000000e+05
    4.0995207382e-04    1.0120000000e+05
    4.1990308091e-04    1.0120000000e+05
    4.2996014236e-04    1.0120000000e+05
    4.3989019468e-04    1.0120000000e+05
    4.4992493349e-04    1.0120000000e+05
    4.5994613902e-04    1.0120000000e+05
    4.6995186131e-04    1.0120000000e+05
    4.7994026681e-04    1.0120000000e+05
    4.8990937648e-04    1.0120000000e+05
    4.9998221220e-04    1.0120000000e+05
    5.0990789896e-04    1.0120000000e+05
    5.1993562374e-04    1.0120000000e+05
    5.2993849386e-04    1.0120000000e+05
    5.3991412278e-04    1.0120000000e+05
    5.4999196436e-04    1.0120000000e+05
    5.5990810506e-04    1.0120000000e+05
    5.6992471218e-04    1.0120000000e+05
    5.7990802452e-04    1.0120000000e+05
    5.8999250177e-04    1.0120000000e+05
    5.9990328737e-04    1.0120000000e+05
    6.0991331702e-04    1.0120000000e+05
    6.1988295056e-04    1.0120000000e+05
    6.2995241024e-04    1.0120000000e+05
    6.3997926190e-04    1.0120000000e+05
    6.4996100264e-04    1.0120000000e+05
    6.5989489667e-04    1.0120000000e+05
    6.6992652137e-04    1.0120000000e+05
    6.7990768002e-04    1.0120000000e+05
    6.8998691859e-04    1.0120000000e+05
    6.9986027665e-04    1.0120000000e+05
    7.0998293813e-04    1.0120000000e+05
    7.1989413118e-04    1.0120000000e+05
    7.2990043554e-04    1.0120000000e+05
    7.3984486517e-04    1.0120000000e+05
    7.4988428969e-04    1.0120000000e+05
    7.5985846343e-04    1.0120000000e+05
    7.6992751565e-04    1.0120000000e+05
    7.7992817387e-04    1.0120000000e+05
    7.8985717846e-04    1.0120000000e+05
    7.9987925710e-04    1.0120000000e+05
    8.0999551574e-04    1.0120000000e+05
    8.1986549776e-04    1.0120000000e+05
    8.2999852020e-04    1.0120000000e+05
    8.3987845574e-04    1.0120000000e+05
    8.4984814748e-04    1.0120000000e+05
    8.5990905063e-04    1.0120000000e+05
    8.6988334078e-04    1.0120000000e+05
    8.7994802743e-04    1.0120000000e+05
    8.8992225938e-04    1.0120000000e+05
    8.9998613112e-04    1.0120000000e+05
    9.0995582286e-04    1.0120000000e+05
    9.1982743470e-04    1.0120000000e+05
    9.2997500906e-04    1.0120000000e+05
    9.3983340776e-04    1.0120000000e+05
    9.4997021370e-04    1.0120000000e+05
    9.5981039340e-04    1.0120000000e+05
    9.6993148327e-04    1.0120000000e+05
    9.7994552925e-04    1.0120000000e+05
    9.8984886426e-04    1.0120000000e+05
    9.9983788095e-04    1.0120000000e+05
    1.0099139763e-03    1.0120000000e+05
    1.0198743548e-03    1.0120000000e+05
    1.0299209971e-03    1.0120000000e+05
    1.0398474988e-03    1.0120000000e+05
    1.0498592164e-03    1.0120000000e+05
    1.0599576635e-03    1.0120000000e+05
    1.0699304985e-03    1.0120000000e+05
    1.0799894808e-03    1.0120000000e+05
    1.0899181943e-03    1.0120000000e+05
    1.0999315418e-03    1.0120000000e+05
    1.1098104296e-03    1.0120000000e+05
    1.1199952569e-03    1.0120000000e+05
    1.1298204772e-03    1.0120000000e+05
    1.1399544310e-03    1.0120000000e+05
    1.1499475222e-03    1.0120000000e+05
    1.1597959092e-03    1.0120000000e+05
    1.1699590832e-03    1.0120000000e+05
    1.1799767381e-03    1.0120000000e+05
    1.1898423545e-03    1.0120000000e+05
    1.1997910915e-03    1.0120000000e+05
    1.2098244624e-03    1.0120000000e+05
    1.2199432822e-03    1.0120000000e+05
    1.2299048249e-03    1.0120000000e+05
    1.2399510015e-03    1.0120000000e+05
    1.2498367578e-03    1.0120000000e+05
    1.2598036556e-03    1.0120000000e+05
    1.2698565843e-03    1.0120000000e+05
    1.2799941469e-03    1.0120000000e+05
    1.2899631402e-03    1.0120000000e+05
    1.2997582089e-03    1.0120000000e+05
    1.3098956551e-03    1.0120000000e+05
    1.3198574306e-03    1.0120000000e+05
    1.3299036073e-03    1.0120000000e+05
    1.3397682924e-03    1.0120000000e+05
    1.3499865308e-03    1.0120000000e+05
    1.3597486541e-03    1.0120000000e+05
    1.3698672410e-03    1.0120000000e+05
    1.3797961874e-03    1.0120000000e+05
    1.3898100005e-03    1.0120000000e+05
    1.3999097282e-03    1.0120000000e+05
    1.4098128304e-03    1.0120000000e+05
    1.4198002173e-03    1.0120000000e+05
    1.4298737515e-03    1.0120000000e+05
    1.4397433260e-03    1.0120000000e+05
    1.4499909012e-03    1.0120000000e+05
    1.4597361442e-03    1.0120000000e+05
    1.4698632294e-03    1.0120000000e+05
    1.4797771582e-03    1.0120000000e+05
    1.4897770016e-03    1.0120000000e+05
    1.4998636907e-03    1.0120000000e+05
    1.5097298892e-03    1.0120000000e+05
    1.5199937625e-03    1.0120000000e+05
    1.5297196805e-03    1.0120000000e+05
    1.5398465330e-03    1.0120000000e+05
    1.5497431159e-03    1.0120000000e+05
    1.5597263118e-03    1.0120000000e+05
    1.5697977506e-03    1.0120000000e+05
    1.5799595276e-03    1.0120000000e+05
    1.5898809070e-03    1.0120000000e+05
    1.5998904128e-03    1.0120000000e+05
    1.6099894419e-03    1.0120000000e+05
    1.6198392259e-03    1.0120000000e+05
    1.6297763214e-03    1.0120000000e+05
    1.6398025909e-03    1.0120000000e+05
    1.6499201301e-03    1.0120000000e+05
    1.6597771319e-03    1.0120000000e+05
    1.6697229585e-03    1.0120000000e+05
    1.6797594726e-03    1.0120000000e+05
    1.6898885369e-03    1.0120000000e+05
    1.6997453058e-03    1.0120000000e+05
    1.7096924130e-03    1.0120000000e+05
    1.7197312554e-03    1.0120000000e+05
    1.7298643943e-03    1.0120000000e+05
    1.7397128977e-03    1.0120000000e+05
    1.7496529035e-03    1.0120000000e+05
    1.7596862745e-03    1.0120000000e+05
    1.7698152224e-03    1.0120000000e+05
    1.7796467291e-03    1.0120000000e+05
    1.7899698578e-03    1.0120000000e+05
    1.7999924021e-03    1.0120000000e+05
    1.8097053980e-03    1.0120000000e+05
    1.8199207261e-03    1.0120000000e+05
    1.8298232462e-03    1.0120000000e+05
    1.8398216926e-03    1.0120000000e+05
    1.8499189755e-03    1.0120000000e+05
    1.8596900627e-03    1.0120000000e+05
    1.8699875800e-03    1.0120000000e+05
    1.8799399259e-03    1.0120000000e+05
    1.8899659626e-03    1.0120000000e+05
    1.8996117869e-03    1.0120000000e+05
    1.9097289769e-03    1.0120000000e+05
    1.9198774826e-03    1.0120000000e+05
    1.9296122482e-03    1.0120000000e+05
    1.9398162840e-03    1.0120000000e+05
    1.9496070454e-03    1.0120000000e+05
    1.9598077051e-03    1.0120000000e+05
    1.9696136005e-03    1.0120000000e+05
    1.9798076246e-03    1.0120000000e+05
    1.9895976875e-03    1.0120000000e+05
    1.9998075441e-03    1.0120000000e+05
    2.0095761865e-03    1.0120000000e+05
    2.0197972190e-03    1.0120000000e+05
    2.0299835596e-03    1.0120000000e+05
    2.0397508051e-03    1.0120000000e+05
    2.0499310922e-03    1.0120000000e+05
    2.0596571267e-03    1.0120000000e+05
    2.0698974840e-03    1.0120000000e+05
    2.0795827731e-03    1.0120000000e+05
    2.0897332579e-03    1.0120000000e+05
    2.0998986438e-03    1.0120000000e+05
    2.1096193232e-03    1.0120000000e+05
    2.1197989117e-03    1.0120000000e+05
    2.1296031773e-03    1.0120000000e+05
    2.1398668177e-03    1.0120000000e+05
    2.1496941335e-03    1.0120000000e+05
    2.1599899046e-03    1.0120000000e+05
    2.1698523778e-03    1.0120000000e+05
    2.1797281224e-03    1.0120000000e+05
    2.1896413527e-03    1.0120000000e+05
    2.1995669231e-03    1.0120000000e+05
    2.2099658381e-03    1.0120000000e+05
    2.2199093364e-03    1.0120000000e+05
    2.2298479453e-03    1.0120000000e+05
    2.2397672292e-03    1.0120000000e+05
    2.2496839520e-03    1.0120000000e+05
    2.2595820483e-03    1.0120000000e+05
    2.2698910907e-03    1.0120000000e+05
    2.2797239944e-03    1.0120000000e+05
    2.2899501491e-03    1.0120000000e+05
    2.2996782791e-03    1.0120000000e+05
    2.3097735830e-03    1.0120000000e+05
    2.3197866976e-03    1.0120000000e+05
    2.3297183216e-03    1.0120000000e+05
    2.3399968632e-03    1.0120000000e+05
    2.3497669026e-03    1.0120000000e+05
    2.3598796688e-03    1.0120000000e+05
    2.3699095473e-03    1.0120000000e+05
    2.3798579350e-03    1.0120000000e+05
    2.3897264618e-03    1.0120000000e+05
    2.3999218829e-03    1.0120000000e+05
    2.4096299894e-03    1.0120000000e+05
    2.4196610320e-03    1.0120000000e+05
    2.4296103511e-03    1.0120000000e+05
    2.4398716632e-03    1.0120000000e+05
    2.4496568367e-03    1.0120000000e+05
    2.4597498123e-03    1.0120000000e+05
    2.4697589688e-03    1.0120000000e+05
    2.4796850048e-03    1.0120000000e+05
    2.4899060372e-03    1.0120000000e+05
    2.4996660650e-03    1.0120000000e+05
    2.5097166654e-03    1.0120000000e+05
    2.5196822826e-03    1.0120000000e+05
    2.5299277622e-03    1.0120000000e+05
    2.5397224817e-03    1.0120000000e+05
    2.5497926399e-03    1.0120000000e+05
    2.5597752538e-03    1.0120000000e+05
    2.5696707889e-03    1.0120000000e+05
    2.5798294228e-03    1.0120000000e+05
    2.5898960885e-03    1.0120000000e+05
    2.5998724159e-03    1.0120000000e+05
    2.6097586378e-03    1.0120000000e+05
    2.6198921259e-03    1.0120000000e+05
    2.6299313176e-03    1.0120000000e+05
    2.6398764458e-03    1.0120000000e+05
    2.6497282088e-03    1.0120000000e+05
    2.6598114055e-03    1.0120000000e+05
    2.6697961148e-03    1.0120000000e+05
    2.6796832681e-03    1.0120000000e+05
    2.6897874195e-03    1.0120000000e+05
    2.6997886598e-03    1.0120000000e+05
    2.7099950239e-03    1.0120000000e+05
    2.7197885793e-03    1.0120000000e+05
    2.7297816705e-03    1.0120000000e+05
    2.7399647515e-03    1.0120000000e+05
    2.7497392148e-03    1.0120000000e+05
    2.7599886525e-03    1.0120000000e+05
    2.7698297054e-03    1.0120000000e+05
    2.7798416559e-03    1.0120000000e+05
    2.7897332329e-03    1.0120000000e+05
    2.7997812722e-03    1.0120000000e+05
    2.8099752963e-03    1.0120000000e+05
    2.8197639622e-03    1.0120000000e+05
    2.8299572878e-03    1.0120000000e+05
    2.8397443239e-03    1.0120000000e+05
    2.8499118052e-03    1.0120000000e+05
    2.8599263169e-03    1.0120000000e+05
    2.8697866946e-03    1.0120000000e+05
    2.8799846768e-03    1.0120000000e+05
    2.8897668235e-03    1.0120000000e+05
    2.8998579364e-03    1.0120000000e+05
    2.9099958483e-03    1.0120000000e+05
    2.9199351557e-03    1.0120000000e+05
    2.9298958834e-03    1.0120000000e+05
    2.9398596380e-03    1.0120000000e+05
    2.9498056974e-03    1.0120000000e+05
    2.9599200934e-03    1.0120000000e+05
    2.9699578881e-03    1.0120000000e+05
    2.9798911419e-03    1.0120000000e+05
    2.9898760840e-03    1.0120000000e+05
    2.9998538084e-03    1.0120000000e+05
    3.0099274591e-03    1.0120000000e+05
    3.0199855100e-03    1.0120000000e+05
    3.0298873316e-03    1.0120000000e+05
    3.0399961397e-03    1.0120000000e+05
    3.0499447603e-03    1.0120000000e+05
    3.0599357560e-03    1.0120000000e+05
    3.0699258205e-03    1.0120000000e+05
    3.0799258966e-03    1.0120000000e+05
    3.0899341218e-03    1.0120000000e+05
    3.0999660958e-03    1.0120000000e+05
    3.1099177431e-03    1.0120000000e+05
    3.1199727673e-03    1.0120000000e+05
    3.1298939139e-03    1.0120000000e+05
    3.1399733853e-03    1.0120000000e+05
    3.1499464530e-03    1.0120000000e+05
    3.1599469949e-03    1.0120000000e+05
    3.1698734965e-03    1.0120000000e+05
    3.1798779964e-03    1.0120000000e+05
    3.1898233574e-03    1.0120000000e+05
    3.1999284402e-03    1.0120000000e+05
    3.2098875381e-03    1.0120000000e+05
    3.2199874986e-03    1.0120000000e+05
    3.2299663872e-03    1.0120000000e+05
    3.2398302574e-03    1.0120000000e+05
    3.2499977387e-03    1.0120000000e+05
    3.2598476391e-03    1.0120000000e+05
    3.2699764706e-03    1.0120000000e+05
    3.2799520995e-03    1.0120000000e+05
    3.2898264471e-03    1.0120000000e+05
    3.2999441028e-03    1.0120000000e+05
    3.3099281136e-03    1.0120000000e+05
    3.3199824393e-03    1.0120000000e+05
    3.3298649359e-03    1.0120000000e+05
    3.3398177475e-03    1.0120000000e+05
    3.3498087432e-03    1.0120000000e+05
    3.3598658629e-03    1.0120000000e+05
    3.3699707128e-03    1.0120000000e+05
    3.3799014054e-03    1.0120000000e+05
    3.3898917027e-03    1.0120000000e+05
    3.3999055158e-03    1.0120000000e+05
    3.4099947661e-03    1.0120000000e+05
    3.4198684152e-03    1.0120000000e+05
    3.4298170358e-03    1.0120000000e+05
    3.4397889394e-03    1.0120000000e+05
    3.4497936722e-03    1.0120000000e+05
    3.4598663915e-03    1.0120000000e+05
    3.4699349198e-03    1.0120000000e+05
    3.4798551351e-03    1.0120000000e+05
    3.4897867590e-03    1.0120000000e+05
    3.4999826457e-03    1.0120000000e+05
    3.5097773653e-03    1.0120000000e+05
    3.5197958350e-03    1.0120000000e+05
    3.5298839211e-03    1.0120000000e+05
    3.5399969202e-03    1.0120000000e+05
    3.5498775542e-03    1.0120000000e+05
    3.5598364193e-03    1.0120000000e+05
    3.5697778221e-03    1.0120000000e+05
    3.5797811579e-03    1.0120000000e+05
    3.5898096394e-03    1.0120000000e+05
    3.5998316016e-03    1.0120000000e+05
    3.6099448334e-03    1.0120000000e+05
    3.6197928712e-03    1.0120000000e+05
    3.6298988853e-03    1.0120000000e+05
    3.6398554221e-03    1.0120000000e+05
    3.6497581750e-03    1.0120000000e+05
    3.6599577870e-03    1.0120000000e+05
    3.6699522752e-03    1.0120000000e+05
    3.6799269728e-03    1.0120000000e+05
    3.6899703555e-03    1.0120000000e+05
    3.6997755524e-03    1.0120000000e+05
    3.7098312750e-03    1.0120000000e+05
    3.7199377548e-03    1.0120000000e+05
    3.7297962699e-03    1.0120000000e+05
    3.7399216089e-03    1.0120000000e+05
    3.7498308811e-03    1.0120000000e+05
    3.7599958014e-03    1.0120000000e+05
    3.7699295208e-03    1.0120000000e+05
    3.7798804697e-03    1.0120000000e+05
    3.7898402661e-03    1.0120000000e+05
    3.7998105399e-03    1.0120000000e+05
    3.8097896613e-03    1.0120000000e+05
    3.8197766989e-03    1.0120000000e+05
    3.8297695573e-03    1.0120000000e+05
    3.8397654425e-03    1.0120000000e+05
    3.8497629575e-03    1.0120000000e+05
    3.8597621024e-03    1.0120000000e+05
    3.8697607815e-03    1.0120000000e+05
    3.8797585294e-03    1.0120000000e+05
    3.8897569757e-03    1.0120000000e+05
    3.8997547235e-03    1.0120000000e+05
    3.9099999703e-03    1.0120000000e+05
    3.9199944586e-03    1.0120000000e+05
    3.9299908094e-03    1.0120000000e+05
    3.9399862289e-03    1.0120000000e+05
    3.9499816485e-03    1.0120000000e+05
    3.9599840529e-03    1.0120000000e+05
    3.9699897170e-03    1.0120000000e+05
    3.9799953811e-03    1.0120000000e+05
    3.9897542447e-03    1.0120000000e+05
    3.9997790009e-03    1.0120000000e+05
    4.0098065510e-03    1.0120000000e+05
    4.0198364295e-03    1.0120000000e+05
    4.0298774838e-03    1.0120000000e+05
    4.0399315767e-03    1.0120000000e+05
    4.0499847382e-03    1.0120000000e+05
    4.0598013438e-03    1.0120000000e+05
    4.0698801167e-03    1.0120000000e+05
    4.0799672715e-03    1.0120000000e+05
    4.0897997096e-03    1.0120000000e+05
    4.0999045596e-03    1.0120000000e+05
    4.1097723879e-03    1.0120000000e+05
    4.1198935360e-03    1.0120000000e+05
    4.1297618300e-03    1.0120000000e+05
    4.1399071924e-03    1.0120000000e+05
    4.1498071514e-03    1.0120000000e+05
    4.1599627584e-03    1.0120000000e+05
    4.1698710993e-03    1.0120000000e+05
    4.1798017919e-03    1.0120000000e+05
    4.1899867356e-03    1.0120000000e+05
    4.1999211535e-03    1.0120000000e+05
    4.2098714039e-03    1.0120000000e+05
    4.2198356241e-03    1.0120000000e+05
    4.2297947221e-03    1.0120000000e+05
    4.2397654615e-03    1.0120000000e+05
    4.2497552931e-03    1.0120000000e+05
    4.2597479187e-03    1.0120000000e+05
    4.2699924670e-03    1.0120000000e+05
    4.2799995281e-03    1.0120000000e+05
    4.2897737585e-03    1.0120000000e+05
    4.2997947894e-03    1.0120000000e+05
    4.3098125607e-03    1.0120000000e+05
    4.3198605999e-03    1.0120000000e+05
    4.3299216777e-03    1.0120000000e+05
    4.3399664573e-03    1.0120000000e+05
    4.3497537263e-03    1.0120000000e+05
    4.3598376215e-03    1.0120000000e+05
    4.3699257076e-03    1.0120000000e+05
    4.3797423132e-03    1.0120000000e+05
    4.3898220174e-03    1.0120000000e+05
    4.3999347836e-03    1.0120000000e+05
    4.4097863138e-03    1.0120000000e+05
    4.4198967516e-03    1.0120000000e+05
    4.4297464192e-03    1.0120000000e+05
    4.4398782775e-03    1.0120000000e+05
    4.4497535564e-03    1.0120000000e+05
    4.4599035755e-03    1.0120000000e+05
    4.4697881676e-03    1.0120000000e+05
    4.4799419120e-03    1.0120000000e+05
    4.4898348860e-03    1.0120000000e+05
    4.4997581281e-03    1.0120000000e+05
    4.5099379495e-03    1.0120000000e+05
    4.5198625885e-03    1.0120000000e+05
    4.5297765173e-03    1.0120000000e+05
    4.5399838127e-03    1.0120000000e+05
    4.5499284752e-03    1.0120000000e+05
    4.5598810539e-03    1.0120000000e+05
    4.5698187314e-03    1.0120000000e+05
    4.5797815546e-03    1.0120000000e+05
    4.5897499658e-03    1.0120000000e+05
    4.5999907888e-03    1.0120000000e+05
    4.6099573374e-03    1.0120000000e+05
    4.6199429780e-03    1.0120000000e+05
    4.6299337409e-03    1.0120000000e+05
    4.6399338171e-03    1.0120000000e+05
    4.6499259770e-03    1.0120000000e+05
    4.6599269845e-03    1.0120000000e+05
    4.6699363738e-03    1.0120000000e+05
    4.6799597330e-03    1.0120000000e+05
    4.6899863519e-03    1.0120000000e+05
    4.6997456811e-03    1.0120000000e+05
    4.7097653151e-03    1.0120000000e+05
    4.7197989188e-03    1.0120000000e+05
    4.7298492864e-03    1.0120000000e+05
    4.7399098985e-03    1.0120000000e+05
    4.7499728389e-03    1.0120000000e+05
    4.7597675584e-03    1.0120000000e+05
    4.7698239796e-03    1.0120000000e+05
    4.7798776068e-03    1.0120000000e+05
    4.7899377532e-03    1.0120000000e+05
    4.7997427173e-03    1.0120000000e+05
    4.8098163679e-03    1.0120000000e+05
    4.8198867589e-03    1.0120000000e+05
    4.8299548216e-03    1.0120000000e+05
    4.8397569917e-03    1.0120000000e+05
    4.8498231918e-03    1.0120000000e+05
    4.8598889261e-03    1.0120000000e+05
    4.8699560575e-03    1.0120000000e+05
    4.8797610216e-03    1.0120000000e+05
    4.8898346722e-03    1.0120000000e+05
    4.8999097198e-03    1.0120000000e+05
    4.9099838361e-03    1.0120000000e+05
    4.9197915941e-03    1.0120000000e+05
    4.9298629165e-03    1.0120000000e+05
    4.9399333075e-03    1.0120000000e+05
    4.9497387372e-03    1.0120000000e+05
    4.9598091282e-03    1.0120000000e+05
    4.9698795192e-03    1.0120000000e+05
    4.9799499102e-03    1.0120000000e+05
    4.9897544086e-03    1.0120000000e+05
    4.9998243339e-03    1.0120000000e+05
    5.0098933280e-03    1.0120000000e+05
    5.0199623220e-03    1.0120000000e+05
    5.0297658890e-03    1.0120000000e+05
    5.0398344174e-03    1.0120000000e+05
    5.0499024801e-03    1.0120000000e+05
    5.0599705428e-03    1.0120000000e+05
    5.0697736442e-03    1.0120000000e+05
    5.0798421726e-03    1.0120000000e+05
    5.0899120979e-03    1.0120000000e+05
    5.0999829546e-03    1.0120000000e+05
    5.1097879186e-03    1.0120000000e+05
    5.1198564470e-03    1.0120000000e+05
    5.1299240440e-03    1.0120000000e+05
    5.1399902441e-03    1.0120000000e+05
    5.1497914828e-03    1.0120000000e+05
    5.1598572172e-03    1.0120000000e+05
    5.1699257456e-03    1.0120000000e+05
    5.1799966022e-03    1.0120000000e+05
    5.1898024976e-03    1.0120000000e+05
    5.1998728886e-03    1.0120000000e+05
    5.2099432796e-03    1.0120000000e+05
    5.2197468467e-03    1.0120000000e+05
    5.2298149094e-03    1.0120000000e+05
    5.2398820408e-03    1.0120000000e+05
    5.2499482408e-03    1.0120000000e+05
    5.2597527392e-03    1.0120000000e+05
    5.2698268555e-03    1.0120000000e+05
    5.2798991092e-03    1.0120000000e+05
    5.2899699658e-03    1.0120000000e+05
    5.2997753955e-03    1.0120000000e+05
    5.3098448552e-03    1.0120000000e+05
    5.3199194372e-03    1.0120000000e+05
    5.3299963474e-03    1.0120000000e+05
    5.3398068994e-03    1.0120000000e+05
    5.3498814814e-03    1.0120000000e+05
    5.3599546663e-03    1.0120000000e+05
    5.3697652183e-03    1.0120000000e+05
    5.3798453882e-03    1.0120000000e+05
    5.3899236955e-03    1.0120000000e+05
    5.3997361101e-03    1.0120000000e+05
    5.4098125547e-03    1.0120000000e+05
    5.4198913276e-03    1.0120000000e+05
    5.4299738258e-03    1.0120000000e+05
    5.4397895001e-03    1.0120000000e+05
    5.4498701356e-03    1.0120000000e+05
    5.4599498399e-03    1.0120000000e+05
    5.4697683081e-03    1.0120000000e+05
    5.4798517376e-03    1.0120000000e+05
    5.4899342358e-03    1.0120000000e+05
    5.4997508414e-03    1.0120000000e+05
    5.5098352022e-03    1.0120000000e+05
    5.5199200287e-03    1.0120000000e+05
    5.5297389627e-03    1.0120000000e+05
    5.5398223922e-03    1.0120000000e+05
    5.5499081500e-03    1.0120000000e+05
    5.5599939078e-03    1.0120000000e+05
    5.5698133074e-03    1.0120000000e+05
    5.5798981339e-03    1.0120000000e+05
    5.5899843574e-03    1.0120000000e+05
    5.5998046882e-03    1.0120000000e+05
    5.6098899804e-03    1.0120000000e+05
    5.6199752726e-03    1.0120000000e+05
    5.6297960691e-03    1.0120000000e+05
    5.6398813613e-03    1.0120000000e+05
    5.6499661878e-03    1.0120000000e+05
    5.6597860530e-03    1.0120000000e+05
    5.6698704138e-03    1.0120000000e+05
    5.6799552403e-03    1.0120000000e+05
    5.6897741742e-03    1.0120000000e+05
    5.6998585351e-03    1.0120000000e+05
    5.7099428959e-03    1.0120000000e+05
    5.7197608985e-03    1.0120000000e+05
    5.7298443280e-03    1.0120000000e+05
    5.7399272919e-03    1.0120000000e+05
    5.7497443631e-03    1.0120000000e+05
    5.7598273270e-03    1.0120000000e+05
    5.7699126191e-03    1.0120000000e+05
    5.7799979113e-03    1.0120000000e+05
    5.7898168452e-03    1.0120000000e+05
    5.7999012060e-03    1.0120000000e+05
    5.8099846356e-03    1.0120000000e+05
    5.8198026381e-03    1.0120000000e+05
    5.8298856020e-03    1.0120000000e+05
    5.8399685659e-03    1.0120000000e+05
    5.8497861028e-03    1.0120000000e+05
    5.8598686010e-03    1.0120000000e+05
    5.8699506335e-03    1.0120000000e+05
    5.8797677048e-03    1.0120000000e+05
    5.8898497373e-03    1.0120000000e+05
    5.8999313042e-03    1.0120000000e+05
    5.9097479098e-03    1.0120000000e+05
    5.9198290110e-03    1.0120000000e+05
    5.9299096465e-03    1.0120000000e+05
    5.9399902821e-03    1.0120000000e+05
    5.9498050250e-03    1.0120000000e+05
    5.9598847292e-03    1.0120000000e+05
    5.9699639678e-03    1.0120000000e+05
    5.9797777794e-03    1.0120000000e+05
    5.9898612089e-03    1.0120000000e+05
    5.9999469668e-03    1.0120000000e+05
    6.0097682290e-03    1.0120000000e+05
    6.0198535211e-03    1.0120000000e+05
    6.0299383476e-03    1.0120000000e+05
    6.0397577472e-03    1.0120000000e+05
    6.0498430394e-03    1.0120000000e+05
    6.0599306598e-03    1.0120000000e+05
    6.0697537847e-03    1.0120000000e+05
    6.0798441991e-03    1.0120000000e+05
    6.0899360105e-03    1.0120000000e+05
    6.0997647233e-03    1.0120000000e+05
    6.1098644510e-03    1.0120000000e+05
    6.1199683696e-03    1.0120000000e+05
    6.1298096552e-03    1.0120000000e+05
    6.1399191618e-03    1.0120000000e+05
    6.1497758143e-03    1.0120000000e+05
    6.1599086039e-03    1.0120000000e+05
    6.1697755009e-03    1.0120000000e+05
    6.1799157411e-03    1.0120000000e+05
    6.1897984706e-03    1.0120000000e+05
    6.1999633908e-03    1.0120000000e+05
    6.2098740600e-03    1.0120000000e+05
    6.2197814696e-03    1.0120000000e+05
    6.2299673446e-03    1.0120000000e+05
    6.2398985028e-03    1.0120000000e+05
    6.2498417683e-03    1.0120000000e+05
    6.2597957440e-03    1.0120000000e+05
    6.2697469257e-03    1.0120000000e+05
    6.2799775042e-03    1.0120000000e+05
    6.2899542972e-03    1.0120000000e+05
    6.2999422662e-03    1.0120000000e+05
    6.3099414110e-03    1.0120000000e+05
    6.3199358992e-03    1.0120000000e+05
    6.3299373724e-03    1.0120000000e+05
    6.3399588689e-03    1.0120000000e+05
    6.3499882817e-03    1.0120000000e+05
    6.3597564586e-03    1.0120000000e+05
    6.3697923906e-03    1.0120000000e+05
    6.3798259944e-03    1.0120000000e+05
    6.3898833469e-03    1.0120000000e+05
    6.3999546692e-03    1.0120000000e+05
    6.4097549766e-03    1.0120000000e+05
    6.4198290929e-03    1.0120000000e+05
    6.4299004152e-03    1.0120000000e+05
    6.4399908297e-03    1.0120000000e+05
    6.4498255961e-03    1.0120000000e+05
    6.4599323086e-03    1.0120000000e+05
    6.4697694033e-03    1.0120000000e+05
    6.4798761159e-03    1.0120000000e+05
    6.4899949357e-03    1.0120000000e+05
    6.4998609014e-03    1.0120000000e+05
    6.5099974163e-03    1.0120000000e+05
    6.5198694356e-03    1.0120000000e+05
    6.5297465771e-03    1.0120000000e+05
    6.5399003215e-03    1.0120000000e+05
    6.5497965552e-03    1.0120000000e+05
    6.5599638037e-03    1.0120000000e+05
    6.5698637627e-03    1.0120000000e+05
    6.5797790885e-03    1.0120000000e+05
    6.5899728797e-03    1.0120000000e+05
    6.5998993814e-03    1.0120000000e+05
    6.6098226234e-03    1.0120000000e+05
    6.6197440028e-03    1.0120000000e+05
    6.6299648024e-03    1.0120000000e+05
    6.6399159841e-03    1.0120000000e+05
    6.6498718224e-03    1.0120000000e+05
    6.6598304547e-03    1.0120000000e+05
    6.6697802395e-03    1.0120000000e+05
    6.6797439940e-03    1.0120000000e+05
    6.6897287033e-03    1.0120000000e+05
    6.6999890842e-03    1.0120000000e+05
    6.7099742591e-03    1.0120000000e+05
    6.7199529149e-03    1.0120000000e+05
    6.7299394868e-03    1.0120000000e+05
    6.7399437539e-03    1.0120000000e+05
    6.7499559373e-03    1.0120000000e+05
    6.7599704489e-03    1.0120000000e+05
    6.7699789070e-03    1.0120000000e+05
    6.7799892277e-03    1.0120000000e+05
    6.7897383124e-03    1.0120000000e+05
    6.7997765727e-03    1.0120000000e+05
    6.8098171614e-03    1.0120000000e+05
    6.8198628724e-03    1.0120000000e+05
    6.8299011327e-03    1.0120000000e+05
    6.8399459124e-03    1.0120000000e+05
    6.8497234024e-03    1.0120000000e+05
    6.8597905338e-03    1.0120000000e+05
    6.8698646501e-03    1.0120000000e+05
    6.8799378350e-03    1.0120000000e+05
    6.8897269666e-03    1.0120000000e+05
    6.8998010829e-03    1.0120000000e+05
    6.9098854437e-03    1.0120000000e+05
    6.9199833088e-03    1.0120000000e+05
    6.9298096932e-03    1.0120000000e+05
    6.9399168715e-03    1.0120000000e+05
    6.9497399963e-03    1.0120000000e+05
    6.9598429836e-03    1.0120000000e+05
    6.9699515589e-03    1.0120000000e+05
    6.9797928445e-03    1.0120000000e+05
    6.9899260998e-03    1.0120000000e+05
    6.9997790270e-03    1.0120000000e+05
    7.0099150762e-03    1.0120000000e+05
    7.0197707973e-03    1.0120000000e+05
    7.0299142972e-03    1.0120000000e+05
    7.0397835225e-03    1.0120000000e+05
    7.0499423891e-03    1.0120000000e+05
    7.0598190650e-03    1.0120000000e+05
    7.0699797943e-03    1.0120000000e+05
    7.0798601955e-03    1.0120000000e+05
    7.0897466503e-03    1.0120000000e+05
    7.0999250747e-03    1.0120000000e+05
    7.1098282933e-03    1.0120000000e+05
    7.1197357029e-03    1.0120000000e+05
    7.1299262345e-03    1.0120000000e+05
    7.1398364380e-03    1.0120000000e+05
    7.1497540921e-03    1.0120000000e+05
    7.1599599905e-03    1.0120000000e+05
    7.1698860265e-03    1.0120000000e+05
    7.1798181161e-03    1.0120000000e+05
    7.1897525340e-03    1.0120000000e+05
    7.1999733336e-03    1.0120000000e+05
    7.2099179961e-03    1.0120000000e+05
    7.2198705748e-03    1.0120000000e+05
    7.2298268788e-03    1.0120000000e+05
    7.2397841141e-03    1.0120000000e+05
    7.2497432120e-03    1.0120000000e+05
    7.2599928826e-03    1.0120000000e+05
    7.2699622251e-03    1.0120000000e+05
    7.2799399495e-03    1.0120000000e+05
    7.2899218649e-03    1.0120000000e+05
    7.2999075055e-03    1.0120000000e+05
    7.3098959401e-03    1.0120000000e+05
    7.3198848404e-03    1.0120000000e+05
    7.3298797943e-03    1.0120000000e+05
    7.3398840614e-03    1.0120000000e+05
    7.3498920538e-03    1.0120000000e+05
    7.3599033058e-03    1.0120000000e+05
    7.3699196801e-03    1.0120000000e+05
    7.3799383827e-03    1.0120000000e+05
    7.3899631388e-03    1.0120000000e+05
    7.3999911547e-03    1.0120000000e+05
    7.4097379111e-03    1.0120000000e+05
    7.4197780341e-03    1.0120000000e+05
    7.4298195541e-03    1.0120000000e+05
    7.4398638681e-03    1.0120000000e+05
    7.4499160983e-03    1.0120000000e+05
    7.4599729851e-03    1.0120000000e+05
    7.4697472155e-03    1.0120000000e+05
    7.4798134156e-03    1.0120000000e+05
    7.4898828752e-03    1.0120000000e+05
    7.4999579228e-03    1.0120000000e+05
    7.5097461231e-03    1.0120000000e+05
    7.5198290870e-03    1.0120000000e+05
    7.5299181044e-03    1.0120000000e+05
    7.5397235341e-03    1.0120000000e+05
    7.5498176739e-03    1.0120000000e+05
    7.5599201955e-03    1.0120000000e+05
    7.5697391294e-03    1.0120000000e+05
    7.5798518956e-03    1.0120000000e+05
    7.5899669901e-03    1.0120000000e+05
    7.5997984968e-03    1.0120000000e+05
    7.6099243015e-03    1.0120000000e+05
    7.6197641902e-03    1.0120000000e+05
    7.6298974454e-03    1.0120000000e+05
    7.6397499070e-03    1.0120000000e+05
    7.6498975977e-03    1.0120000000e+05
    7.6597561128e-03    1.0120000000e+05
    7.6699093916e-03    1.0120000000e+05
    7.6797790825e-03    1.0120000000e+05
    7.6899440028e-03    1.0120000000e+05
    7.6998234726e-03    1.0120000000e+05
    7.7099977061e-03    1.0120000000e+05
    7.7198892832e-03    1.0120000000e+05
    7.7297817916e-03    1.0120000000e+05
    7.7399690636e-03    1.0120000000e+05
    7.7498713508e-03    1.0120000000e+05
    7.7597806230e-03    1.0120000000e+05
    7.7699865215e-03    1.0120000000e+05
    7.7799069695e-03    1.0120000000e+05
    7.7898297459e-03    1.0120000000e+05
    7.7997590415e-03    1.0120000000e+05
    7.8099793755e-03    1.0120000000e+05
    7.8199068084e-03    1.0120000000e+05
    7.8298458830e-03    1.0120000000e+05
    7.8397961333e-03    1.0120000000e+05
    7.8497538343e-03    1.0120000000e+05
    7.8597217798e-03    1.0120000000e+05
    7.8699914739e-03    1.0120000000e+05
    7.8799715266e-03    1.0120000000e+05
    7.8899515793e-03    1.0120000000e+05
    7.8999251127e-03    1.0120000000e+05
    7.9099014401e-03    1.0120000000e+05
    7.9198777676e-03    1.0120000000e+05
    7.9298606142e-03    1.0120000000e+05
    7.9398499802e-03    1.0120000000e+05
    7.9498440027e-03    1.0120000000e+05
    7.9598398879e-03    1.0120000000e+05
    7.9698283225e-03    1.0120000000e+05
    7.9798176885e-03    1.0120000000e+05
    7.9898145050e-03    1.0120000000e+05
    7.9998215660e-03    1.0120000000e+05
    8.0098258331e-03    1.0120000000e+05
    8.0198403448e-03    1.0120000000e+05
    8.0298604444e-03    1.0120000000e+05
    8.0398879945e-03    1.0120000000e+05
    8.0499202013e-03    1.0120000000e+05
    8.0599617213e-03    1.0120000000e+05
    8.0697154626e-03    1.0120000000e+05
    8.0797653645e-03    1.0120000000e+05
    8.0898096785e-03    1.0120000000e+05
    8.0998511985e-03    1.0120000000e+05
    8.1098936498e-03    1.0120000000e+05
    8.1199351698e-03    1.0120000000e+05
    8.1299869344e-03    1.0120000000e+05
    8.1397509202e-03    1.0120000000e+05
    8.1498166546e-03    1.0120000000e+05
    8.1598823890e-03    1.0120000000e+05
    8.1699462608e-03    1.0120000000e+05
    8.1797102466e-03    1.0120000000e+05
    8.1897731870e-03    1.0120000000e+05
    8.1998333335e-03    1.0120000000e+05
    8.2098944113e-03    1.0120000000e+05
    8.2199610770e-03    1.0120000000e+05
    8.2297353074e-03    1.0120000000e+05
    8.2398056984e-03    1.0120000000e+05
    8.2498751581e-03    1.0120000000e+05
    8.2599418238e-03    1.0120000000e+05
    8.2697160542e-03    1.0120000000e+05
    8.2797901705e-03    1.0120000000e+05
    8.2898605615e-03    1.0120000000e+05
    8.2999384031e-03    1.0120000000e+05
    8.3097266033e-03    1.0120000000e+05
    8.3198100328e-03    1.0120000000e+05
    8.3298925310e-03    1.0120000000e+05
    8.3399713039e-03    1.0120000000e+05
    8.3497604355e-03    1.0120000000e+05
    8.3598569036e-03    1.0120000000e+05
    8.3699533716e-03    1.0120000000e+05
    8.3797592670e-03    1.0120000000e+05
    8.3898659796e-03    1.0120000000e+05
    8.3999698982e-03    1.0120000000e+05
    8.4097720683e-03    1.0120000000e+05
    8.4198759869e-03    1.0120000000e+05
    8.4299799055e-03    1.0120000000e+05
    8.4397895262e-03    1.0120000000e+05
    8.4498953074e-03    1.0120000000e+05
    8.4597114474e-03    1.0120000000e+05
    8.4698302671e-03    1.0120000000e+05
    8.4799500182e-03    1.0120000000e+05
    8.4897717461e-03    1.0120000000e+05
    8.4998896345e-03    1.0120000000e+05
    8.5097085685e-03    1.0120000000e+05
    8.5198236629e-03    1.0120000000e+05
    8.5299378261e-03    1.0120000000e+05
    8.5397539660e-03    1.0120000000e+05
    8.5498671979e-03    1.0120000000e+05
    8.5599794984e-03    1.0120000000e+05
    8.5697937757e-03    1.0120000000e+05
    8.5799042135e-03    1.0120000000e+05
    8.5897175595e-03    1.0120000000e+05
    8.5998270661e-03    1.0120000000e+05
    8.6099356413e-03    1.0120000000e+05
    8.6197480559e-03    1.0120000000e+05
    8.6298584938e-03    1.0120000000e+05
    8.6399689317e-03    1.0120000000e+05
    8.6497813463e-03    1.0120000000e+05
    8.6598899215e-03    1.0120000000e+05
    8.6697051302e-03    1.0120000000e+05
    8.6798174307e-03    1.0120000000e+05
    8.6899287999e-03    1.0120000000e+05
    8.6997430772e-03    1.0120000000e+05
    8.7098581716e-03    1.0120000000e+05
    8.7199741974e-03    1.0120000000e+05
    8.7297968566e-03    1.0120000000e+05
    8.7399212644e-03    1.0120000000e+05
    8.7497541681e-03    1.0120000000e+05
    8.7598897517e-03    1.0120000000e+05
    8.7697263807e-03    1.0120000000e+05
    8.7798666209e-03    1.0120000000e+05
    8.7897190824e-03    1.0120000000e+05
    8.7998732924e-03    1.0120000000e+05
    8.8097304106e-03    1.0120000000e+05
    8.8198939338e-03    1.0120000000e+05
    8.8297640905e-03    1.0120000000e+05
    8.8399387896e-03    1.0120000000e+05
    8.8498229161e-03    1.0120000000e+05
    8.8597144932e-03    1.0120000000e+05
    8.8699162006e-03    1.0120000000e+05
    8.8798319921e-03    1.0120000000e+05
    8.8897515088e-03    1.0120000000e+05
    8.8999783620e-03    1.0120000000e+05
    8.9099239558e-03    1.0120000000e+05
    8.9198825881e-03    1.0120000000e+05
    8.9298486710e-03    1.0120000000e+05
    8.9398240671e-03    1.0120000000e+05
    8.9498078451e-03    1.0120000000e+05
    8.9598000050e-03    1.0120000000e+05
    8.9697996154e-03    1.0120000000e+05
    8.9798057452e-03    1.0120000000e+05
    8.9898286387e-03    1.0120000000e+05
    8.9998617768e-03    1.0120000000e+05
    9.0098949149e-03    1.0120000000e+05
    9.0199317783e-03    1.0120000000e+05
    9.0299844742e-03    1.0120000000e+05
    9.0397400782e-03    1.0120000000e+05
    9.0498095378e-03    1.0120000000e+05
    9.0598855168e-03    1.0120000000e+05
    9.0699652210e-03    1.0120000000e+05
    9.0797375888e-03    1.0120000000e+05
    9.0898182243e-03    1.0120000000e+05
    9.0997107327e-03    1.0120000000e+05
    9.1097960249e-03    1.0120000000e+05
    9.1197807342e-03    1.0120000000e+05
    9.1299954802e-03    1.0120000000e+05
    9.1397678480e-03    1.0120000000e+05
    9.1497516260e-03    1.0120000000e+05
    9.1599468142e-03    1.0120000000e+05
    9.1699892655e-03    1.0120000000e+05
    9.1798566282e-03    1.0120000000e+05
    9.1899009421e-03    1.0120000000e+05
    9.1997394338e-03    1.0120000000e+05
    9.2097399756e-03    1.0120000000e+05
    9.2199016362e-03    1.0120000000e+05
    9.2298230156e-03    1.0120000000e+05
    9.2398915440e-03    1.0120000000e+05
    9.2496955767e-03    1.0120000000e+05
    9.2596337199e-03    1.0120000000e+05
    9.2697013170e-03    1.0120000000e+05
    9.2799002305e-03    1.0120000000e+05
    9.2897964641e-03    1.0120000000e+05
    9.2998100445e-03    1.0120000000e+05
    9.3099363148e-03    1.0120000000e+05
    9.3197254464e-03    1.0120000000e+05
    9.3296142295e-03    1.0120000000e+05
    9.3396017328e-03    1.0120000000e+05
    9.3496665359e-03    1.0120000000e+05
    9.3597797677e-03    1.0120000000e+05
    9.3699246645e-03    1.0120000000e+05
    9.3796495348e-03    1.0120000000e+05
    9.3898735940e-03    1.0120000000e+05
    9.3996962532e-03    1.0120000000e+05
    9.4095570967e-03    1.0120000000e+05
    9.4199515879e-03    1.0120000000e+05
    9.4299158081e-03    1.0120000000e+05
    9.4399480149e-03    1.0120000000e+05
    9.4495397061e-03    1.0120000000e+05
    9.4596724957e-03    1.0120000000e+05
    9.4698071480e-03    1.0120000000e+05
    9.4795739278e-03    1.0120000000e+05
    9.4898054376e-03    1.0120000000e+05
    9.4996588305e-03    1.0120000000e+05
    9.5099797472e-03    1.0120000000e+05
    9.5199448988e-03    1.0120000000e+05
    9.5298429951e-03    1.0120000000e+05
    9.5398332924e-03    1.0120000000e+05
    9.5499018207e-03    1.0120000000e+05
    9.5599610358e-03    1.0120000000e+05
    9.5695797354e-03    1.0120000000e+05
    9.5797451213e-03    1.0120000000e+05
    9.5898965374e-03    1.0120000000e+05
    9.5996083692e-03    1.0120000000e+05
    9.6098948270e-03    1.0120000000e+05
    9.6197118983e-03    1.0120000000e+05
    9.6294926479e-03    1.0120000000e+05
    9.6398778260e-03    1.0120000000e+05
    9.6498383209e-03    1.0120000000e+05
    9.6597922966e-03    1.0120000000e+05
    9.6697835252e-03    1.0120000000e+05
    9.6797822043e-03    1.0120000000e+05
    9.6897473559e-03    1.0120000000e+05
    9.6998140216e-03    1.0120000000e+05
    9.7098993137e-03    1.0120000000e+05
    9.7199883312e-03    1.0120000000e+05
    9.7296331078e-03    1.0120000000e+05
    9.7397994250e-03    1.0120000000e+05
    9.7494758666e-03    1.0120000000e+05
    9.7597064450e-03    1.0120000000e+05
    9.7694415599e-03    1.0120000000e+05
    9.7796972841e-03    1.0120000000e+05
    9.7894724458e-03    1.0120000000e+05
    9.7997728735e-03    1.0120000000e+05
    9.8094744608e-03    1.0120000000e+05
    9.8195765167e-03    1.0120000000e+05
    9.8299449310e-03    1.0120000000e+05
    9.8398961127e-03    1.0120000000e+05
    9.8498994485e-03    1.0120000000e+05
    9.8599046469e-03    1.0120000000e+05
    9.8698735237e-03    1.0120000000e+05
    9.8797576502e-03    1.0120000000e+05
    9.8898932338e-03    1.0120000000e+05
    9.8998090252e-03    1.0120000000e+05
    9.9097890779e-03    1.0120000000e+05
    9.9197058007e-03    1.0120000000e+05
    9.9299866706e-03    1.0120000000e+05
    9.9398056045e-03    1.0120000000e+05
    9.9498573691e-03    1.0120000000e+05
    9.9599147215e-03    1.0120000000e+05
    9.9698686972e-03    1.0120000000e+05
    9.9799800664e-03    1.0120000000e+05
    9.9899657071e-03    1.0120000000e+05
    9.9999271333e-03    1.0120000000e+05
    1.0009943508e-02    1.0120000000e+05
    1.0019944981e-02    1.0120000000e+05
    1.0029990226e-02    1.0120000000e+05
    1.0039906949e-02    1.0120000000e+05
    1.0049949400e-02    1.0120000000e+05
    1.0059885681e-02    1.0120000000e+05
    1.0069910437e-02    1.0120000000e+05
    1.0079928674e-02    1.0120000000e+05
    1.0089986026e-02    1.0120000000e+05
    1.0099871084e-02    1.0120000000e+05
    1.0109960102e-02    1.0120000000e+05
    1.0119806044e-02    1.0120000000e+05
    1.0129826143e-02    1.0120000000e+05
    1.0139985010e-02    1.0120000000e+05
    1.0149792768e-02    1.0120000000e+05
    1.0159926489e-02    1.0120000000e+05
    1.0169918649e-02    1.0120000000e+05
    1.0179980658e-02    1.0120000000e+05
    1.0189859197e-02    1.0120000000e+05
    1.0199791752e-02    1.0120000000e+05
    1.0209767148e-02    1.0120000000e+05
    1.0219792835e-02    1.0120000000e+05
    1.0229859501e-02    1.0120000000e+05
    1.0239958763e-02    1.0120000000e+05
    1.0249850340e-02    1.0120000000e+05
    1.0259761475e-02    1.0120000000e+05
    1.0269952007e-02    1.0120000000e+05
    1.0279923677e-02    1.0120000000e+05
    1.0289914906e-02    1.0120000000e+05
    1.0299938731e-02    1.0120000000e+05
    1.0309972800e-02    1.0120000000e+05
    1.0319782421e-02    1.0120000000e+05
    1.0329863057e-02    1.0120000000e+05
    1.0339955799e-02    1.0120000000e+05
    1.0349827819e-02    1.0120000000e+05
    1.0359947570e-02    1.0120000000e+05
    1.0369854048e-02    1.0120000000e+05
    1.0379767045e-02    1.0120000000e+05
    1.0389930569e-02    1.0120000000e+05
    1.0399884544e-02    1.0120000000e+05
    1.0409832001e-02    1.0120000000e+05
    1.0419803672e-02    1.0120000000e+05
    1.0429783724e-02    1.0120000000e+05
    1.0439780541e-02    1.0120000000e+05
    1.0449817404e-02    1.0120000000e+05
    1.0459831916e-02    1.0120000000e+05
    1.0469865054e-02    1.0120000000e+05
    1.0479935445e-02    1.0120000000e+05
    1.0489748791e-02    1.0120000000e+05
    1.0499824770e-02    1.0120000000e+05
    1.0509921238e-02    1.0120000000e+05
    1.0519791394e-02    1.0120000000e+05
    1.0529914871e-02    1.0120000000e+05
    1.0539782234e-02    1.0120000000e+05
    1.0549942963e-02    1.0120000000e+05
    1.0559865274e-02    1.0120000000e+05
    1.0569778271e-02    1.0120000000e+05
    1.0579960421e-02    1.0120000000e+05
    1.0589913465e-02    1.0120000000e+05
    1.0599868372e-02    1.0120000000e+05
    1.0609812103e-02    1.0120000000e+05
    1.0619779117e-02    1.0120000000e+05
    1.0629779659e-02    1.0120000000e+05
    1.0639773682e-02    1.0120000000e+05
    1.0649764910e-02    1.0120000000e+05
    1.0659782216e-02    1.0120000000e+05
    1.0669818148e-02    1.0120000000e+05
    1.0679843836e-02    1.0120000000e+05
    1.0689879768e-02    1.0120000000e+05
    1.0699938983e-02    1.0120000000e+05
    1.0709743015e-02    1.0120000000e+05
    1.0719807819e-02    1.0120000000e+05
    1.0729883797e-02    1.0120000000e+05
    1.0739983059e-02    1.0120000000e+05
    1.0749818757e-02    1.0120000000e+05
    1.0759919882e-02    1.0120000000e+05
    1.0769767687e-02    1.0120000000e+05
    1.0779899545e-02    1.0120000000e+05
    1.0789766908e-02    1.0120000000e+05
    1.0799900629e-02    1.0120000000e+05
    1.0809784755e-02    1.0120000000e+05
    1.0819946416e-02    1.0120000000e+05
    1.0829840787e-02    1.0120000000e+05
    1.0839740746e-02    1.0120000000e+05
    1.0849921964e-02    1.0120000000e+05
    1.0859842412e-02    1.0120000000e+05
    1.0869764723e-02    1.0120000000e+05
    1.0879962705e-02    1.0120000000e+05
    1.0889902711e-02    1.0120000000e+05
    1.0899846442e-02    1.0120000000e+05
    1.0909791104e-02    1.0120000000e+05
    1.0919743218e-02    1.0120000000e+05
    1.0929971933e-02    1.0120000000e+05
    1.0939938016e-02    1.0120000000e+05
    1.0949909687e-02    1.0120000000e+05
    1.0959887877e-02    1.0120000000e+05
    1.0969870724e-02    1.0120000000e+05
    1.0979855433e-02    1.0120000000e+05
    1.0989841074e-02    1.0120000000e+05
    1.0999830440e-02    1.0120000000e+05
    1.1009826325e-02    1.0120000000e+05
    1.1019826867e-02    1.0120000000e+05
    1.1029832996e-02    1.0120000000e+05
    1.1039844714e-02    1.0120000000e+05
    1.1049861088e-02    1.0120000000e+05
    1.1059878394e-02    1.0120000000e+05
    1.1069894768e-02    1.0120000000e+05
    1.1079910211e-02    1.0120000000e+05
    1.1089926586e-02    1.0120000000e+05
    1.1099942960e-02    1.0120000000e+05
    1.1109958403e-02    1.0120000000e+05
    1.1119977571e-02    1.0120000000e+05
    1.1129997671e-02    1.0120000000e+05
    1.1139749549e-02    1.0120000000e+05
    1.1149773374e-02    1.0120000000e+05
    1.1159798130e-02    1.0120000000e+05
    1.1169822887e-02    1.0120000000e+05
    1.1179848574e-02    1.0120000000e+05
    1.1189875193e-02    1.0120000000e+05
    1.1199902743e-02    1.0120000000e+05
    1.1209929362e-02    1.0120000000e+05
    1.1219956912e-02    1.0120000000e+05
    1.1229983531e-02    1.0120000000e+05
    1.1239740066e-02    1.0120000000e+05
    1.1249767616e-02    1.0120000000e+05
    1.1259797029e-02    1.0120000000e+05
    1.1269826442e-02    1.0120000000e+05
    1.1279855855e-02    1.0120000000e+05
    1.1289886199e-02    1.0120000000e+05
    1.1299917474e-02    1.0120000000e+05
    1.1309948750e-02    1.0120000000e+05
    1.1319980957e-02    1.0120000000e+05
    1.1329743080e-02    1.0120000000e+05
    1.1339776218e-02    1.0120000000e+05
    1.1349810287e-02    1.0120000000e+05
    1.1359844357e-02    1.0120000000e+05
    1.1369878426e-02    1.0120000000e+05
    1.1379913427e-02    1.0120000000e+05
    1.1389948428e-02    1.0120000000e+05
    1.1399983428e-02    1.0120000000e+05
    1.1409747414e-02    1.0120000000e+05
    1.1419784278e-02    1.0120000000e+05
    1.1429822072e-02    1.0120000000e+05
    1.1439863592e-02    1.0120000000e+05
    1.1449908838e-02    1.0120000000e+05
    1.1459960602e-02    1.0120000000e+05
    1.1469740421e-02    1.0120000000e+05
    1.1479791254e-02    1.0120000000e+05
    1.1489840224e-02    1.0120000000e+05
    1.1499889195e-02    1.0120000000e+05
    1.1509937234e-02    1.0120000000e+05
    1.1519984342e-02    1.0120000000e+05
    1.1529762298e-02    1.0120000000e+05
    1.1539814994e-02    1.0120000000e+05
    1.1549869552e-02    1.0120000000e+05
    1.1559925042e-02    1.0120000000e+05
    1.1569979601e-02    1.0120000000e+05
    1.1579762213e-02    1.0120000000e+05
    1.1589815840e-02    1.0120000000e+05
    1.1599870399e-02    1.0120000000e+05
    1.1609925888e-02    1.0120000000e+05
    1.1619980447e-02    1.0120000000e+05
    1.1629763991e-02    1.0120000000e+05
    1.1639819480e-02    1.0120000000e+05
    1.1649875902e-02    1.0120000000e+05
    1.1659931391e-02    1.0120000000e+05
    1.1669986881e-02    1.0120000000e+05
    1.1679770425e-02    1.0120000000e+05
    1.1689824983e-02    1.0120000000e+05
    1.1699881405e-02    1.0120000000e+05
    1.1709937826e-02    1.0120000000e+05
    1.1719994247e-02    1.0120000000e+05
    1.1729778722e-02    1.0120000000e+05
    1.1739835143e-02    1.0120000000e+05
    1.1749890633e-02    1.0120000000e+05
    1.1759947054e-02    1.0120000000e+05
    1.1769732460e-02    1.0120000000e+05
    1.1779789813e-02    1.0120000000e+05
    1.1789846234e-02    1.0120000000e+05
    1.1799903587e-02    1.0120000000e+05
    1.1809960008e-02    1.0120000000e+05
    1.1819744483e-02    1.0120000000e+05
    1.1829801835e-02    1.0120000000e+05
    1.1839860119e-02    1.0120000000e+05
    1.1849917471e-02    1.0120000000e+05
    1.1859974824e-02    1.0120000000e+05
    1.1869760230e-02    1.0120000000e+05
    1.1879817583e-02    1.0120000000e+05
    1.1889874935e-02    1.0120000000e+05
    1.1899933219e-02    1.0120000000e+05
    1.1909991503e-02    1.0120000000e+05
    1.1919776909e-02    1.0120000000e+05
    1.1929835193e-02    1.0120000000e+05
    1.1939892545e-02    1.0120000000e+05
    1.1949950829e-02    1.0120000000e+05
    1.1959737167e-02    1.0120000000e+05
    1.1969795451e-02    1.0120000000e+05
    1.1979853734e-02    1.0120000000e+05
    1.1989912018e-02    1.0120000000e+05
    1.1999971233e-02    1.0120000000e+05
    1.2009757571e-02    1.0120000000e+05
    1.2019816786e-02    1.0120000000e+05
    1.2029875070e-02    1.0120000000e+05
    1.2039934285e-02    1.0120000000e+05
    1.2049992569e-02    1.0120000000e+05
    1.2059779838e-02    1.0120000000e+05
    1.2069839053e-02    1.0120000000e+05
    1.2079898268e-02    1.0120000000e+05
    1.2089957483e-02    1.0120000000e+05
    1.2099745683e-02    1.0120000000e+05
    1.2109804899e-02    1.0120000000e+05
    1.2119865045e-02    1.0120000000e+05
    1.2129924260e-02    1.0120000000e+05
    1.2139984407e-02    1.0120000000e+05
    1.2149772607e-02    1.0120000000e+05
    1.2159833685e-02    1.0120000000e+05
    1.2169894762e-02    1.0120000000e+05
    1.2179955840e-02    1.0120000000e+05
    1.2189744972e-02    1.0120000000e+05
    1.2199805118e-02    1.0120000000e+05
    1.2209866196e-02    1.0120000000e+05
    1.2219927274e-02    1.0120000000e+05
    1.2229988351e-02    1.0120000000e+05
    1.2239778414e-02    1.0120000000e+05
    1.2249840423e-02    1.0120000000e+05
    1.2259902433e-02    1.0120000000e+05
    1.2269965373e-02    1.0120000000e+05
    1.2279756367e-02    1.0120000000e+05
    1.2289819308e-02    1.0120000000e+05
    1.2299882248e-02    1.0120000000e+05
    1.2309945188e-02    1.0120000000e+05
    1.2319736183e-02    1.0120000000e+05
    1.2329799123e-02    1.0120000000e+05
    1.2339862995e-02    1.0120000000e+05
    1.2349926867e-02    1.0120000000e+05
    1.2359990738e-02    1.0120000000e+05
    1.2369782664e-02    1.0120000000e+05
    1.2379846536e-02    1.0120000000e+05
    1.2389911339e-02    1.0120000000e+05
    1.2399976142e-02    1.0120000000e+05
    1.2409768999e-02    1.0120000000e+05
    1.2419834733e-02    1.0120000000e+05
    1.2429899536e-02    1.0120000000e+05
    1.2439965270e-02    1.0120000000e+05
    1.2449759990e-02    1.0120000000e+05
    1.2459825724e-02    1.0120000000e+05
    1.2469891459e-02    1.0120000000e+05
    1.2479958124e-02    1.0120000000e+05
    1.2489751913e-02    1.0120000000e+05
    1.2499818578e-02    1.0120000000e+05
    1.2509885244e-02    1.0120000000e+05
    1.2519951910e-02    1.0120000000e+05
    1.2529747561e-02    1.0120000000e+05
    1.2539815158e-02    1.0120000000e+05
    1.2549882755e-02    1.0120000000e+05
    1.2559951283e-02    1.0120000000e+05
    1.2569746934e-02    1.0120000000e+05
    1.2579815462e-02    1.0120000000e+05
    1.2589883991e-02    1.0120000000e+05
    1.2599952519e-02    1.0120000000e+05
    1.2609749101e-02    1.0120000000e+05
    1.2619817629e-02    1.0120000000e+05
    1.2629887089e-02    1.0120000000e+05
    1.2639956549e-02    1.0120000000e+05
    1.2649754062e-02    1.0120000000e+05
    1.2659824453e-02    1.0120000000e+05
    1.2669893913e-02    1.0120000000e+05
    1.2679964304e-02    1.0120000000e+05
    1.2689762749e-02    1.0120000000e+05
    1.2699833140e-02    1.0120000000e+05
    1.2709904462e-02    1.0120000000e+05
    1.2719975784e-02    1.0120000000e+05
    1.2729775161e-02    1.0120000000e+05
    1.2739846483e-02    1.0120000000e+05
    1.2749918737e-02    1.0120000000e+05
    1.2759990059e-02    1.0120000000e+05
    1.2769790366e-02    1.0120000000e+05
    1.2779863551e-02    1.0120000000e+05
    1.2789935805e-02    1.0120000000e+05
    1.2799736112e-02    1.0120000000e+05
    1.2809809297e-02    1.0120000000e+05
    1.2819882482e-02    1.0120000000e+05
    1.2829956599e-02    1.0120000000e+05
    1.2839757837e-02    1.0120000000e+05
    1.2849831954e-02    1.0120000000e+05
    1.2859906070e-02    1.0120000000e+05
    1.2869980186e-02    1.0120000000e+05
    1.2879782356e-02    1.0120000000e+05
    1.2889857404e-02    1.0120000000e+05
    1.2899932452e-02    1.0120000000e+05
    1.2909735553e-02    1.0120000000e+05
    1.2919810601e-02    1.0120000000e+05
    1.2929886580e-02    1.0120000000e+05
    1.2939961627e-02    1.0120000000e+05
    1.2949764729e-02    1.0120000000e+05
    1.2959841639e-02    1.0120000000e+05
    1.2969917618e-02    1.0120000000e+05
    1.2979994528e-02    1.0120000000e+05
    1.2989799492e-02    1.0120000000e+05
    1.2999875471e-02    1.0120000000e+05
    1.3009952381e-02    1.0120000000e+05
    1.3019757345e-02    1.0120000000e+05
    1.3029835187e-02    1.0120000000e+05
    1.3039912097e-02    1.0120000000e+05
    1.3049989939e-02    1.0120000000e+05
    1.3059795834e-02    1.0120000000e+05
    1.3069873676e-02    1.0120000000e+05
    1.3079951517e-02    1.0120000000e+05
    1.3089758344e-02    1.0120000000e+05
    1.3099837117e-02    1.0120000000e+05
    1.3109915890e-02    1.0120000000e+05
    1.3119994663e-02    1.0120000000e+05
    1.3129801489e-02    1.0120000000e+05
    1.3139880262e-02    1.0120000000e+05
    1.3149959967e-02    1.0120000000e+05
    1.3159766793e-02    1.0120000000e+05
    1.3169846497e-02    1.0120000000e+05
    1.3179926202e-02    1.0120000000e+05
    1.3189733960e-02    1.0120000000e+05
    1.3199814595e-02    1.0120000000e+05
    1.3209894300e-02    1.0120000000e+05
    1.3219974935e-02    1.0120000000e+05
    1.3229783624e-02    1.0120000000e+05
    1.3239864260e-02    1.0120000000e+05
    1.3249944896e-02    1.0120000000e+05
    1.3259753585e-02    1.0120000000e+05
    1.3269835152e-02    1.0120000000e+05
    1.3279916719e-02    1.0120000000e+05
    1.3289998285e-02    1.0120000000e+05
    1.3299807906e-02    1.0120000000e+05
    1.3309889473e-02    1.0120000000e+05
    1.3319971040e-02    1.0120000000e+05
    1.3329780661e-02    1.0120000000e+05
    1.3339863159e-02    1.0120000000e+05
    1.3349945657e-02    1.0120000000e+05
    1.3359755278e-02    1.0120000000e+05
    1.3369838707e-02    1.0120000000e+05
    1.3379921205e-02    1.0120000000e+05
    1.3389731757e-02    1.0120000000e+05
    1.3399815187e-02    1.0120000000e+05
    1.3409897685e-02    1.0120000000e+05
    1.3419981115e-02    1.0120000000e+05
    1.3429792598e-02    1.0120000000e+05
    1.3439876027e-02    1.0120000000e+05
    1.3449959457e-02    1.0120000000e+05
    1.3459770940e-02    1.0120000000e+05
    1.3469855301e-02    1.0120000000e+05
    1.3479938731e-02    1.0120000000e+05
    1.3489751145e-02    1.0120000000e+05
    1.3499835506e-02    1.0120000000e+05
    1.3509919867e-02    1.0120000000e+05
    1.3519731350e-02    1.0120000000e+05
    1.3529816642e-02    1.0120000000e+05
    1.3539901003e-02    1.0120000000e+05
    1.3549986295e-02    1.0120000000e+05
    1.3559798710e-02    1.0120000000e+05
    1.3569884002e-02    1.0120000000e+05
    1.3579969294e-02    1.0120000000e+05
    1.3589781709e-02    1.0120000000e+05
    1.3599867001e-02    1.0120000000e+05
    1.3609953225e-02    1.0120000000e+05
    1.3619765639e-02    1.0120000000e+05
    1.3629851863e-02    1.0120000000e+05
    1.3639937155e-02    1.0120000000e+05
    1.3649750501e-02    1.0120000000e+05
    1.3659836724e-02    1.0120000000e+05
    1.3669922948e-02    1.0120000000e+05
    1.3679737225e-02    1.0120000000e+05
    1.3689823449e-02    1.0120000000e+05
    1.3699909672e-02    1.0120000000e+05
    1.3709996827e-02    1.0120000000e+05
    1.3719810173e-02    1.0120000000e+05
    1.3729897328e-02    1.0120000000e+05
    1.3739983551e-02    1.0120000000e+05
    1.3749797828e-02    1.0120000000e+05
    1.3759884052e-02    1.0120000000e+05
    1.3769971207e-02    1.0120000000e+05
    1.3779785484e-02    1.0120000000e+05
    1.3789872639e-02    1.0120000000e+05
    1.3799959794e-02    1.0120000000e+05
    1.3809775002e-02    1.0120000000e+05
    1.3819862157e-02    1.0120000000e+05
    1.3829949312e-02    1.0120000000e+05
    1.3839763589e-02    1.0120000000e+05
    1.3849850744e-02    1.0120000000e+05
    1.3859938830e-02    1.0120000000e+05
    1.3869753107e-02    1.0120000000e+05
    1.3879841194e-02    1.0120000000e+05
    1.3889928348e-02    1.0120000000e+05
    1.3899743557e-02    1.0120000000e+05
    1.3909830712e-02    1.0120000000e+05
    1.3919918798e-02    1.0120000000e+05
    1.3929734007e-02    1.0120000000e+05
    1.3939821161e-02    1.0120000000e+05
    1.3949909247e-02    1.0120000000e+05
    1.3959997334e-02    1.0120000000e+05
    1.3969811611e-02    1.0120000000e+05
    1.3979899697e-02    1.0120000000e+05
    1.3989987783e-02    1.0120000000e+05
    1.3999802060e-02    1.0120000000e+05
    1.4009890147e-02    1.0120000000e+05
    1.4019978233e-02    1.0120000000e+05
    1.4029793441e-02    1.0120000000e+05
    1.4039880596e-02    1.0120000000e+05
    1.4049968682e-02    1.0120000000e+05
    1.4059783891e-02    1.0120000000e+05
    1.4069871977e-02    1.0120000000e+05
    1.4079959132e-02    1.0120000000e+05
    1.4089774340e-02    1.0120000000e+05
    1.4099862427e-02    1.0120000000e+05
    1.4109949581e-02    1.0120000000e+05
    1.4119764790e-02    1.0120000000e+05
    1.4129852876e-02    1.0120000000e+05
    1.4139940031e-02    1.0120000000e+05
    1.4149755239e-02    1.0120000000e+05
    1.4159843326e-02    1.0120000000e+05
    1.4169930480e-02    1.0120000000e+05
    1.4179745689e-02    1.0120000000e+05
    1.4189833775e-02    1.0120000000e+05
    1.4199920930e-02    1.0120000000e+05
    1.4209736139e-02    1.0120000000e+05
    1.4219823293e-02    1.0120000000e+05
    1.4229911380e-02    1.0120000000e+05
    1.4239998534e-02    1.0120000000e+05
    1.4249813743e-02    1.0120000000e+05
    1.4259900898e-02    1.0120000000e+05
    1.4269988984e-02    1.0120000000e+05
    1.4279803261e-02    1.0120000000e+05
    1.4289891347e-02    1.0120000000e+05
    1.4299978502e-02    1.0120000000e+05
    1.4309793711e-02    1.0120000000e+05
    1.4319880866e-02    1.0120000000e+05
    1.4329968020e-02    1.0120000000e+05
    1.4339783229e-02    1.0120000000e+05
    1.4349870384e-02    1.0120000000e+05
    1.4359957539e-02    1.0120000000e+05
    1.4369771816e-02    1.0120000000e+05
    1.4379858971e-02    1.0120000000e+05
    1.4389947057e-02    1.0120000000e+05
    1.4399761334e-02    1.0120000000e+05
    1.4409848489e-02    1.0120000000e+05
    1.4419935644e-02    1.0120000000e+05
    1.4429749921e-02    1.0120000000e+05
    1.4439837076e-02    1.0120000000e+05
    1.4449925162e-02    1.0120000000e+05
    1.4459740371e-02    1.0120000000e+05
    1.4469827525e-02    1.0120000000e+05
    1.4479915611e-02    1.0120000000e+05
    1.4489730820e-02    1.0120000000e+05
    1.4499818906e-02    1.0120000000e+05
    1.4509907924e-02    1.0120000000e+05
    1.4519996010e-02    1.0120000000e+05
    1.4529812150e-02    1.0120000000e+05
    1.4539902098e-02    1.0120000000e+05
    1.4549992047e-02    1.0120000000e+05
    1.4559809119e-02    1.0120000000e+05
    1.4569899067e-02    1.0120000000e+05
    1.4579990879e-02    1.0120000000e+05
    1.4589807950e-02    1.0120000000e+05
    1.4599898830e-02    1.0120000000e+05
    1.4609989710e-02    1.0120000000e+05
    1.4619809575e-02    1.0120000000e+05
    1.4629901387e-02    1.0120000000e+05
    1.4639994130e-02    1.0120000000e+05
    1.4649814926e-02    1.0120000000e+05
    1.4659908600e-02    1.0120000000e+05
    1.4669728465e-02    1.0120000000e+05
    1.4679823071e-02    1.0120000000e+05
    1.4689917676e-02    1.0120000000e+05
    1.4699740335e-02    1.0120000000e+05
    1.4709834941e-02    1.0120000000e+05
    1.4719930477e-02    1.0120000000e+05
    1.4729754068e-02    1.0120000000e+05
    1.4739851467e-02    1.0120000000e+05
    1.4749947935e-02    1.0120000000e+05
    1.4759771526e-02    1.0120000000e+05
    1.4769869857e-02    1.0120000000e+05
    1.4779969119e-02    1.0120000000e+05
    1.4789795503e-02    1.0120000000e+05
    1.4799896628e-02    1.0120000000e+05
    1.4809997752e-02    1.0120000000e+05
    1.4819826931e-02    1.0120000000e+05
    1.4829928987e-02    1.0120000000e+05
    1.4839760028e-02    1.0120000000e+05
    1.4849863015e-02    1.0120000000e+05
    1.4859965071e-02    1.0120000000e+05
    1.4869795181e-02    1.0120000000e+05
    1.4879899099e-02    1.0120000000e+05
    1.4889731072e-02    1.0120000000e+05
    1.4899836853e-02    1.0120000000e+05
    1.4909941703e-02    1.0120000000e+05
    1.4919773676e-02    1.0120000000e+05
    1.4929881319e-02    1.0120000000e+05
    1.4939990826e-02    1.0120000000e+05
    1.4949826524e-02    1.0120000000e+05
    1.4959935099e-02    1.0120000000e+05
    1.4969770797e-02    1.0120000000e+05
    1.4979881234e-02    1.0120000000e+05
    1.4989994466e-02    1.0120000000e+05
    1.4999835752e-02    1.0120000000e+05
    1.5009948984e-02    1.0120000000e+05
    1.5019789338e-02    1.0120000000e+05
    1.5029903501e-02    1.0120000000e+05
    1.5039749444e-02    1.0120000000e+05
    1.5049871057e-02    1.0120000000e+05
    1.5059991740e-02    1.0120000000e+05
    1.5069839545e-02    1.0120000000e+05
    1.5079962090e-02    1.0120000000e+05
    1.5089813620e-02    1.0120000000e+05
    1.5099940822e-02    1.0120000000e+05
    1.5109793283e-02    1.0120000000e+05
    1.5119919553e-02    1.0120000000e+05
    1.5129772946e-02    1.0120000000e+05
    1.5139902942e-02    1.0120000000e+05
    1.5149762854e-02    1.0120000000e+05
    1.5159897506e-02    1.0120000000e+05
    1.5169755556e-02    1.0120000000e+05
    1.5179889277e-02    1.0120000000e+05
    1.5189753845e-02    1.0120000000e+05
    1.5199896879e-02    1.0120000000e+05
    1.5209765173e-02    1.0120000000e+05
    1.5219908208e-02    1.0120000000e+05
    1.5229776502e-02    1.0120000000e+05
    1.5239920467e-02    1.0120000000e+05
    1.5249796212e-02    1.0120000000e+05
    1.5259947628e-02    1.0120000000e+05
    1.5269823372e-02    1.0120000000e+05
    1.5279974788e-02    1.0120000000e+05
    1.5289854258e-02    1.0120000000e+05
    1.5299736522e-02    1.0120000000e+05
    1.5309899114e-02    1.0120000000e+05
    1.5319786035e-02    1.0120000000e+05
    1.5329947695e-02    1.0120000000e+05
    1.5339838341e-02    1.0120000000e+05
    1.5349732712e-02    1.0120000000e+05
    1.5359904617e-02    1.0120000000e+05
    1.5369802713e-02    1.0120000000e+05
    1.5379971825e-02    1.0120000000e+05
    1.5389868058e-02    1.0120000000e+05
    1.5399772674e-02    1.0120000000e+05
    1.5409957618e-02    1.0120000000e+05
    1.5419867821e-02    1.0120000000e+05
    1.5429775231e-02    1.0120000000e+05
    1.5439958312e-02    1.0120000000e+05
    1.5449866652e-02    1.0120000000e+05
    1.5459783375e-02    1.0120000000e+05
    1.5469978563e-02    1.0120000000e+05
    1.5479899012e-02    1.0120000000e+05
    1.5489820391e-02    1.0120000000e+05
    1.5499741770e-02    1.0120000000e+05
    1.5509942546e-02    1.0120000000e+05
    1.5519873239e-02    1.0120000000e+05
    1.5529803000e-02    1.0120000000e+05
    1.5539732762e-02    1.0120000000e+05
    1.5549944714e-02    1.0120000000e+05
    1.5559883788e-02    1.0120000000e+05
    1.5569824725e-02    1.0120000000e+05
    1.5579766594e-02    1.0120000000e+05
    1.5589985065e-02    1.0120000000e+05
    1.5599930659e-02    1.0120000000e+05
    1.5609882772e-02    1.0120000000e+05
    1.5619838610e-02    1.0120000000e+05
    1.5629796311e-02    1.0120000000e+05
    1.5639752150e-02    1.0120000000e+05
    1.5649979934e-02    1.0120000000e+05
    1.5659937635e-02    1.0120000000e+05
    1.5669900924e-02    1.0120000000e+05
    1.5679869801e-02    1.0120000000e+05
    1.5689836815e-02    1.0120000000e+05
    1.5699803829e-02    1.0120000000e+05
    1.5709770843e-02    1.0120000000e+05
    1.5719739720e-02    1.0120000000e+05
    1.5729991719e-02    1.0120000000e+05
    1.5739969909e-02    1.0120000000e+05
    1.5749951825e-02    1.0120000000e+05
    1.5759937465e-02    1.0120000000e+05
    1.5769921243e-02    1.0120000000e+05
    1.5779910609e-02    1.0120000000e+05
    1.5789901838e-02    1.0120000000e+05
    1.5799893066e-02    1.0120000000e+05
    1.5809888020e-02    1.0120000000e+05
    1.5819888562e-02    1.0120000000e+05
    1.5829892829e-02    1.0120000000e+05
    1.5839895234e-02    1.0120000000e+05
    1.5849899501e-02    1.0120000000e+05
    1.5859903768e-02    1.0120000000e+05
    1.5869913623e-02    1.0120000000e+05
    1.5879927203e-02    1.0120000000e+05
    1.5889944509e-02    1.0120000000e+05
    1.5899965540e-02    1.0120000000e+05
    1.5909984708e-02    1.0120000000e+05
    1.5919724479e-02    1.0120000000e+05
    1.5929743648e-02    1.0120000000e+05
    1.5939772129e-02    1.0120000000e+05
    1.5949806198e-02    1.0120000000e+05
    1.5959840268e-02    1.0120000000e+05
    1.5969874337e-02    1.0120000000e+05
    1.5979913995e-02    1.0120000000e+05
    1.5989949927e-02    1.0120000000e+05
    1.5999989584e-02    1.0120000000e+05
    1.6009753570e-02    1.0120000000e+05
    1.6019804403e-02    1.0120000000e+05
    1.6029857099e-02    1.0120000000e+05
    1.6039907932e-02    1.0120000000e+05
    1.6049962491e-02    1.0120000000e+05
    1.6059737653e-02    1.0120000000e+05
    1.6069794074e-02    1.0120000000e+05
    1.6079848632e-02    1.0120000000e+05
    1.6089914367e-02    1.0120000000e+05
    1.6099987552e-02    1.0120000000e+05
    1.6109777614e-02    1.0120000000e+05
    1.6119848937e-02    1.0120000000e+05
    1.6129922122e-02    1.0120000000e+05
    1.6139997169e-02    1.0120000000e+05
    1.6149800271e-02    1.0120000000e+05
    1.6159884632e-02    1.0120000000e+05
    1.6169974580e-02    1.0120000000e+05
    1.6179785132e-02    1.0120000000e+05
    1.6189873219e-02    1.0120000000e+05
    1.6199966893e-02    1.0120000000e+05
    1.6209784895e-02    1.0120000000e+05
    1.6219889745e-02    1.0120000000e+05
    1.6229994595e-02    1.0120000000e+05
    1.6239821911e-02    1.0120000000e+05
    1.6249934211e-02    1.0120000000e+05
    1.6259763390e-02    1.0120000000e+05
    1.6269871965e-02    1.0120000000e+05
    1.6279984266e-02    1.0120000000e+05
    1.6289824620e-02    1.0120000000e+05
    1.6299951822e-02    1.0120000000e+05
    1.6309795901e-02    1.0120000000e+05
    1.6319926828e-02    1.0120000000e+05
    1.6329776496e-02    1.0120000000e+05
    1.6339905560e-02    1.0120000000e+05
    1.6349755228e-02    1.0120000000e+05
    1.6359889880e-02    1.0120000000e+05
    1.6369748861e-02    1.0120000000e+05
    1.6379889101e-02    1.0120000000e+05
    1.6389746219e-02    1.0120000000e+05
    1.6399886459e-02    1.0120000000e+05
    1.6409749165e-02    1.0120000000e+05
    1.6419891268e-02    1.0120000000e+05
    1.6429753974e-02    1.0120000000e+05
    1.6439907253e-02    1.0120000000e+05
    1.6449782997e-02    1.0120000000e+05
    1.6459934413e-02    1.0120000000e+05
    1.6469798982e-02    1.0120000000e+05
    1.6479946673e-02    1.0120000000e+05
    1.6489811242e-02    1.0120000000e+05
    1.6499949619e-02    1.0120000000e+05
    1.6509801149e-02    1.0120000000e+05
    1.6519926488e-02    1.0120000000e+05
    1.6529766843e-02    1.0120000000e+05
    1.6539882869e-02    1.0120000000e+05
    1.6549723223e-02    1.0120000000e+05
    1.6559991986e-02    1.0120000000e+05
    1.6569862142e-02    1.0120000000e+05
    1.6579903662e-02    1.0120000000e+05
    1.6589811072e-02    1.0120000000e+05
    1.6599873081e-02    1.0120000000e+05
    1.6609778628e-02    1.0120000000e+05
    1.6619827598e-02    1.0120000000e+05
    1.6629705206e-02    1.0120000000e+05
    1.6639716923e-02    1.0120000000e+05
    1.6649862751e-02    1.0120000000e+05
    1.6659813002e-02    1.0120000000e+05
    1.6669888049e-02    1.0120000000e+05
    1.6679750755e-02    1.0120000000e+05
    1.6689725220e-02    1.0120000000e+05
    1.6699813306e-02    1.0120000000e+05
    1.6709668562e-02    1.0120000000e+05
    1.6719985753e-02    1.0120000000e+05
    1.6729693860e-02    1.0120000000e+05
    1.6739854589e-02    1.0120000000e+05
    1.6749748960e-02    1.0120000000e+05
    1.6759734601e-02    1.0120000000e+05
    1.6769804060e-02    1.0120000000e+05
    1.6779944301e-02    1.0120000000e+05
    1.6789760441e-02    1.0120000000e+05
    1.6799798235e-02    1.0120000000e+05
    1.6809985042e-02    1.0120000000e+05
    1.6819979995e-02    1.0120000000e+05
    1.6829967499e-02    1.0120000000e+05
    1.6839975491e-02    1.0120000000e+05
    1.6849739477e-02    1.0120000000e+05
    1.6859779134e-02    1.0120000000e+05
    1.6869835556e-02    1.0120000000e+05
    1.6879906878e-02    1.0120000000e+05
    1.6889985651e-02    1.0120000000e+05
    1.6899803653e-02    1.0120000000e+05
    1.6909888014e-02    1.0120000000e+05
    1.6919976100e-02    1.0120000000e+05
    1.6929799691e-02    1.0120000000e+05
    1.6939891502e-02    1.0120000000e+05
    1.6949983314e-02    1.0120000000e+05
    1.6959810629e-02    1.0120000000e+05
    1.6969904304e-02    1.0120000000e+05
    1.6979999840e-02    1.0120000000e+05
    1.6989829019e-02    1.0120000000e+05
    1.6999924555e-02    1.0120000000e+05
    1.7009753734e-02    1.0120000000e+05
    1.7019849271e-02    1.0120000000e+05
    1.7029942945e-02    1.0120000000e+05
    1.7039772123e-02    1.0120000000e+05
    1.7049867660e-02    1.0120000000e+05
    1.7059961334e-02    1.0120000000e+05
    1.7069790512e-02    1.0120000000e+05
    1.7079884186e-02    1.0120000000e+05
    1.7089979723e-02    1.0120000000e+05
    1.7099807039e-02    1.0120000000e+05
    1.7109900713e-02    1.0120000000e+05
    1.7119994387e-02    1.0120000000e+05
    1.7129823565e-02    1.0120000000e+05
    1.7139915377e-02    1.0120000000e+05
    1.7149742693e-02    1.0120000000e+05
    1.7159836367e-02    1.0120000000e+05
    1.7169928178e-02    1.0120000000e+05
    1.7179755494e-02    1.0120000000e+05
    1.7189847305e-02    1.0120000000e+05
    1.7199939117e-02    1.0120000000e+05
    1.7209764570e-02    1.0120000000e+05
    1.7219856381e-02    1.0120000000e+05
    1.7229948193e-02    1.0120000000e+05
    1.7239773646e-02    1.0120000000e+05
    1.7249863595e-02    1.0120000000e+05
    1.7259953544e-02    1.0120000000e+05
    1.7269778997e-02    1.0120000000e+05
    1.7279870808e-02    1.0120000000e+05
    1.7289962620e-02    1.0120000000e+05
    1.7299788073e-02    1.0120000000e+05
    1.7309878021e-02    1.0120000000e+05
    1.7319969833e-02    1.0120000000e+05
    1.7329799011e-02    1.0120000000e+05
    1.7339896411e-02    1.0120000000e+05
    1.7349993810e-02    1.0120000000e+05
    1.7359830439e-02    1.0120000000e+05
    1.7369935289e-02    1.0120000000e+05
    1.7379779369e-02    1.0120000000e+05
    1.7389893532e-02    1.0120000000e+05
    1.7399746925e-02    1.0120000000e+05
    1.7409877852e-02    1.0120000000e+05
    1.7419751734e-02    1.0120000000e+05
    1.7429903150e-02    1.0120000000e+05
    1.7439791933e-02    1.0120000000e+05
    1.7449954525e-02    1.0120000000e+05
    1.7459865659e-02    1.0120000000e+05
    1.7469797283e-02    1.0120000000e+05
    1.7479749396e-02    1.0120000000e+05
    1.7489979044e-02    1.0120000000e+05
    1.7499946058e-02    1.0120000000e+05
    1.7509931698e-02    1.0120000000e+05
    1.7519934103e-02    1.0120000000e+05
    1.7529955134e-02    1.0120000000e+05
    1.7539994791e-02    1.0120000000e+05
    1.7549777403e-02    1.0120000000e+05
    1.7559845001e-02    1.0120000000e+05
    1.7569923773e-02    1.0120000000e+05
    1.7579745501e-02    1.0120000000e+05
    1.7589857802e-02    1.0120000000e+05
    1.7599986866e-02    1.0120000000e+05
    1.7609855160e-02    1.0120000000e+05
    1.7619732767e-02    1.0120000000e+05
    1.7629889771e-02    1.0120000000e+05
    1.7639784142e-02    1.0120000000e+05
    1.7649969086e-02    1.0120000000e+05
    1.7659902573e-02    1.0120000000e+05
    1.7669847235e-02    1.0120000000e+05
    1.7679799348e-02    1.0120000000e+05
    1.7689758912e-02    1.0120000000e+05
    1.7699724063e-02    1.0120000000e+05
    1.7709977925e-02    1.0120000000e+05
    1.7719969153e-02    1.0120000000e+05
    1.7729973421e-02    1.0120000000e+05
    1.7739983276e-02    1.0120000000e+05
    1.7749994993e-02    1.0120000000e+05
    1.7759736627e-02    1.0120000000e+05
    1.7769761384e-02    1.0120000000e+05
    1.7779793590e-02    1.0120000000e+05
    1.7789840698e-02    1.0120000000e+05
    1.7799895257e-02    1.0120000000e+05
    1.7809953541e-02    1.0120000000e+05
    1.7819736153e-02    1.0120000000e+05
    1.7829805613e-02    1.0120000000e+05
    1.7839882523e-02    1.0120000000e+05
    1.7849961296e-02    1.0120000000e+05
    1.7859766260e-02    1.0120000000e+05
    1.7869858071e-02    1.0120000000e+05
    1.7879953608e-02    1.0120000000e+05
    1.7889777198e-02    1.0120000000e+05
    1.7899889499e-02    1.0120000000e+05
    1.7909724265e-02    1.0120000000e+05
    1.7919842154e-02    1.0120000000e+05
    1.7929960042e-02    1.0120000000e+05
    1.7939800397e-02    1.0120000000e+05
    1.7949923873e-02    1.0120000000e+05
    1.7959769815e-02    1.0120000000e+05
    1.7969897017e-02    1.0120000000e+05
    1.7979746684e-02    1.0120000000e+05
    1.7989877611e-02    1.0120000000e+05
    1.7999729142e-02    1.0120000000e+05
    1.8009861931e-02    1.0120000000e+05
    1.8019992858e-02    1.0120000000e+05
    1.8029844388e-02    1.0120000000e+05
    1.8039977178e-02    1.0120000000e+05
    1.8049826846e-02    1.0120000000e+05
    1.8059961498e-02    1.0120000000e+05
    1.8069814891e-02    1.0120000000e+05
    1.8079949543e-02    1.0120000000e+05
    1.8089804798e-02    1.0120000000e+05
    1.8099941313e-02    1.0120000000e+05
    1.8109796569e-02    1.0120000000e+05
    1.8119934946e-02    1.0120000000e+05
    1.8129792064e-02    1.0120000000e+05
    1.8139932305e-02    1.0120000000e+05
    1.8149793148e-02    1.0120000000e+05
    1.8159935251e-02    1.0120000000e+05
    1.8169796094e-02    1.0120000000e+05
    1.8179940060e-02    1.0120000000e+05
    1.8189804628e-02    1.0120000000e+05
    1.8199950457e-02    1.0120000000e+05
    1.8209816888e-02    1.0120000000e+05
    1.8219964579e-02    1.0120000000e+05
    1.8229832873e-02    1.0120000000e+05
    1.8239982426e-02    1.0120000000e+05
    1.8249852583e-02    1.0120000000e+05
    1.8259722739e-02    1.0120000000e+05
    1.8269876018e-02    1.0120000000e+05
    1.8279748037e-02    1.0120000000e+05
    1.8289905041e-02    1.0120000000e+05
    1.8299778923e-02    1.0120000000e+05
    1.8309935927e-02    1.0120000000e+05
    1.8319811672e-02    1.0120000000e+05
    1.8329970539e-02    1.0120000000e+05
    1.8339846283e-02    1.0120000000e+05
    1.8349723890e-02    1.0120000000e+05
    1.8359884620e-02    1.0120000000e+05
    1.8369764090e-02    1.0120000000e+05
    1.8379924819e-02    1.0120000000e+05
    1.8389806151e-02    1.0120000000e+05
    1.8399968743e-02    1.0120000000e+05
    1.8409848213e-02    1.0120000000e+05
    1.8419729546e-02    1.0120000000e+05
    1.8429894000e-02    1.0120000000e+05
    1.8439775333e-02    1.0120000000e+05
    1.8449939787e-02    1.0120000000e+05
    1.8459822983e-02    1.0120000000e+05
    1.8469987437e-02    1.0120000000e+05
    1.8479870632e-02    1.0120000000e+05
    1.8489753827e-02    1.0120000000e+05
    1.8499920145e-02    1.0120000000e+05
    1.8509803340e-02    1.0120000000e+05
    1.8519969657e-02    1.0120000000e+05
    1.8529852852e-02    1.0120000000e+05
    1.8539736047e-02    1.0120000000e+05
    1.8549902365e-02    1.0120000000e+05
    1.8559787422e-02    1.0120000000e+05
    1.8569953740e-02    1.0120000000e+05
    1.8579838797e-02    1.0120000000e+05
    1.8589721993e-02    1.0120000000e+05
    1.8599890172e-02    1.0120000000e+05
    1.8609773368e-02    1.0120000000e+05
    1.8619941548e-02    1.0120000000e+05
    1.8629826605e-02    1.0120000000e+05
    1.8639992923e-02    1.0120000000e+05
    1.8649877980e-02    1.0120000000e+05
    1.8659763038e-02    1.0120000000e+05
    1.8669931218e-02    1.0120000000e+05
    1.8679816276e-02    1.0120000000e+05
    1.8689982593e-02    1.0120000000e+05
    1.8699867651e-02    1.0120000000e+05
    1.8709752709e-02    1.0120000000e+05
    1.8719920889e-02    1.0120000000e+05
    1.8729805946e-02    1.0120000000e+05
    1.8739974126e-02    1.0120000000e+05
    1.8749859184e-02    1.0120000000e+05
    1.8759744242e-02    1.0120000000e+05
    1.8769912422e-02    1.0120000000e+05
    1.8779799342e-02    1.0120000000e+05
    1.8789967522e-02    1.0120000000e+05
    1.8799854442e-02    1.0120000000e+05
    1.8809739500e-02    1.0120000000e+05
    1.8819909543e-02    1.0120000000e+05
    1.8829794601e-02    1.0120000000e+05
    1.8839964643e-02    1.0120000000e+05
    1.8849849701e-02    1.0120000000e+05
    1.8859736621e-02    1.0120000000e+05
    1.8869906664e-02    1.0120000000e+05
    1.8879793584e-02    1.0120000000e+05
    1.8889963627e-02    1.0120000000e+05
    1.8899850547e-02    1.0120000000e+05
    1.8909737468e-02    1.0120000000e+05
    1.8919907510e-02    1.0120000000e+05
    1.8929796293e-02    1.0120000000e+05
    1.8939966336e-02    1.0120000000e+05
    1.8949855119e-02    1.0120000000e+05
    1.8959743902e-02    1.0120000000e+05
    1.8969913945e-02    1.0120000000e+05
    1.8979802728e-02    1.0120000000e+05
    1.8989974633e-02    1.0120000000e+05
    1.8999863416e-02    1.0120000000e+05
    1.9009752199e-02    1.0120000000e+05
    1.9019924104e-02    1.0120000000e+05
    1.9029814750e-02    1.0120000000e+05
    1.9039988518e-02    1.0120000000e+05
    1.9049877301e-02    1.0120000000e+05
    1.9059767947e-02    1.0120000000e+05
    1.9069941714e-02    1.0120000000e+05
    1.9079834223e-02    1.0120000000e+05
    1.9089724869e-02    1.0120000000e+05
    1.9099898636e-02    1.0120000000e+05
    1.9109791145e-02    1.0120000000e+05
    1.9119966775e-02    1.0120000000e+05
    1.9129859284e-02    1.0120000000e+05
    1.9139751792e-02    1.0120000000e+05
    1.9149927422e-02    1.0120000000e+05
    1.9159821793e-02    1.0120000000e+05
    1.9169997424e-02    1.0120000000e+05
    1.9179891795e-02    1.0120000000e+05
    1.9189786166e-02    1.0120000000e+05
    1.9199963659e-02    1.0120000000e+05
    1.9209859893e-02    1.0120000000e+05
    1.9219756126e-02    1.0120000000e+05
    1.9229935482e-02    1.0120000000e+05
    1.9239831716e-02    1.0120000000e+05
    1.9249727950e-02    1.0120000000e+05
    1.9259907305e-02    1.0120000000e+05
    1.9269805402e-02    1.0120000000e+05
    1.9279986620e-02    1.0120000000e+05
    1.9289884716e-02    1.0120000000e+05
    1.9299784675e-02    1.0120000000e+05
    1.9309965894e-02    1.0120000000e+05
    1.9319865853e-02    1.0120000000e+05
    1.9329765812e-02    1.0120000000e+05
    1.9339948893e-02    1.0120000000e+05
    1.9349850714e-02    1.0120000000e+05
    1.9359752536e-02    1.0120000000e+05
    1.9369937479e-02    1.0120000000e+05
    1.9379839301e-02    1.0120000000e+05
    1.9389741123e-02    1.0120000000e+05
    1.9399927929e-02    1.0120000000e+05
    1.9409831613e-02    1.0120000000e+05
    1.9419735298e-02    1.0120000000e+05
    1.9429922104e-02    1.0120000000e+05
    1.9439827651e-02    1.0120000000e+05
[...]
    1.3513997197e-01    1.0121825000e+05
    1.3514992595e-01    1.0121824219e+05
    1.3515986502e-01    1.0121822656e+05
    1.3516981900e-01    1.0121822656e+05
    1.3517975807e-01    1.0121821875e+05
    1.3518971205e-01    1.0121821094e+05
    1.3519996405e-01    1.0121821094e+05
    1.3520990312e-01    1.0121819531e+05
    1.3521985710e-01    1.0121818750e+05
    1.3522979617e-01    1.0121817969e+05
    1.3523975015e-01    1.0121816406e+05
    1.3524968922e-01    1.0121816406e+05
    1.3525995612e-01    1.0121815625e+05
    1.3526989520e-01    1.0121814844e+05
    1.3527984917e-01    1.0121814844e+05
    1.3528978825e-01    1.0121813281e+05
    1.3529974222e-01    1.0121812500e+05
    1.3530999422e-01    1.0121811719e+05
    1.3531994820e-01    1.0121810156e+05
    1.3532988727e-01    1.0121810156e+05
    1.3533984125e-01    1.0121809375e+05
    1.3534978032e-01    1.0121808594e+05
    1.3535973430e-01    1.0121808594e+05
    1.3536998630e-01    1.0121807031e+05
    1.3537992537e-01    1.0121806250e+05
    1.3538987935e-01    1.0121805469e+05
    1.3539981842e-01    1.0121803906e+05
    1.3540977240e-01    1.0121803906e+05
    1.3541971147e-01    1.0121803125e+05
    1.3542997837e-01    1.0121802344e+05
    1.3543991745e-01    1.0121802344e+05
    1.3544987142e-01    1.0121800781e+05
    1.3545981050e-01    1.0121800000e+05
    1.3546976447e-01    1.0121799219e+05
    1.3547970355e-01    1.0121797656e+05
    1.3548997045e-01    1.0121797656e+05
    1.3549990952e-01    1.0121796875e+05
    1.3550986350e-01    1.0121796094e+05
    1.3551980257e-01    1.0121796094e+05
    1.3552975655e-01    1.0121794531e+05
    1.3553969562e-01    1.0121793750e+05
    1.3554994762e-01    1.0121792969e+05
    1.3555990160e-01    1.0121791406e+05
    1.3556984067e-01    1.0121791406e+05
    1.3557979465e-01    1.0121790625e+05
    1.3558973372e-01    1.0121789844e+05
    1.3560000062e-01    1.0121789844e+05
    1.3560993969e-01    1.0121788281e+05
    1.3561989367e-01    1.0121787500e+05
    1.3562983274e-01    1.0121786719e+05
    1.3563978672e-01    1.0121785156e+05
    1.3564972579e-01    1.0121785156e+05
    1.3565999269e-01    1.0121785156e+05
    1.3566993177e-01    1.0121784375e+05
    1.3567988575e-01    1.0121783594e+05
    1.3568982482e-01    1.0121783594e+05
    1.3569977880e-01    1.0121782031e+05
    1.3570971787e-01    1.0121781250e+05
    1.3571998477e-01    1.0121780469e+05
    1.3572992384e-01    1.0121778906e+05
    1.3573987782e-01    1.0121778906e+05
    1.3574981689e-01    1.0121778125e+05
    1.3575977087e-01    1.0121777344e+05
    1.3576970994e-01    1.0121777344e+05
    1.3577996194e-01    1.0121775781e+05
    1.3578991592e-01    1.0121775000e+05
    1.3579985499e-01    1.0121774219e+05
    1.3580980897e-01    1.0121772656e+05
    1.3581974804e-01    1.0121772656e+05
    1.3582970202e-01    1.0121771875e+05
    1.3583995402e-01    1.0121771094e+05
    1.3584990799e-01    1.0121771094e+05
    1.3585984707e-01    1.0121771094e+05
    1.3586980104e-01    1.0121769531e+05
    1.3587974012e-01    1.0121768750e+05
    1.3588969409e-01    1.0121767969e+05
    1.3589994609e-01    1.0121766406e+05
    1.3590990007e-01    1.0121766406e+05
    1.3591983914e-01    1.0121765625e+05
    1.3592979312e-01    1.0121764844e+05
    1.3593973219e-01    1.0121764844e+05
    1.3594998419e-01    1.0121763281e+05
    1.3595993817e-01    1.0121762500e+05
    1.3596987724e-01    1.0121761719e+05
    1.3597983122e-01    1.0121760156e+05
    1.3598977029e-01    1.0121760156e+05
    1.3599972427e-01    1.0121759375e+05
    1.3600997627e-01    1.0121758594e+05
    1.3601993024e-01    1.0121758594e+05
    1.3602986932e-01    1.0121758594e+05
    1.3603982329e-01    1.0121757031e+05
    1.3604976237e-01    1.0121756250e+05
    1.3605971634e-01    1.0121755469e+05
    1.3606996834e-01    1.0121753906e+05
    1.3607992232e-01    1.0121753906e+05
    1.3608986139e-01    1.0121753125e+05
    1.3609981537e-01    1.0121752344e+05
    1.3610975444e-01    1.0121752344e+05
    1.3611970842e-01    1.0121750781e+05
    1.3612996042e-01    1.0121750000e+05
    1.3613989949e-01    1.0121749219e+05
    1.3614985347e-01    1.0121749219e+05
    1.3615979254e-01    1.0121747656e+05
    1.3616974652e-01    1.0121747656e+05
    1.3617968559e-01    1.0121746875e+05
    1.3618995249e-01    1.0121746094e+05
    1.3619989157e-01    1.0121746094e+05
    1.3620984554e-01    1.0121744531e+05
    1.3621978462e-01    1.0121743750e+05
    1.3622973859e-01    1.0121742969e+05
    1.3623999059e-01    1.0121741406e+05
    1.3624994457e-01    1.0121741406e+05
    1.3625988364e-01    1.0121741406e+05
    1.3626983762e-01    1.0121740625e+05
    1.3627977669e-01    1.0121739844e+05
    1.3628973067e-01    1.0121739844e+05
    1.3629998267e-01    1.0121738281e+05
    1.3630993664e-01    1.0121737500e+05
    1.3631987572e-01    1.0121736719e+05
    1.3632982969e-01    1.0121735156e+05
    1.3633976877e-01    1.0121735156e+05
    1.3634970784e-01    1.0121734375e+05
    1.3635997474e-01    1.0121734375e+05
    1.3636991382e-01    1.0121733594e+05
    1.3637986779e-01    1.0121733594e+05
    1.3638980687e-01    1.0121732031e+05
    1.3639976084e-01    1.0121731250e+05
    1.3640969992e-01    1.0121730469e+05
    1.3641996682e-01    1.0121728906e+05
    1.3642990589e-01    1.0121728906e+05
    1.3643985987e-01    1.0121728125e+05
    1.3644979894e-01    1.0121728125e+05
    1.3645975292e-01    1.0121727344e+05
    1.3646969199e-01    1.0121727344e+05
    1.3647995889e-01    1.0121725781e+05
    1.3648989797e-01    1.0121725000e+05
    1.3649985194e-01    1.0121724219e+05
    1.3650979102e-01    1.0121722656e+05
    1.3651974499e-01    1.0121722656e+05
    1.3652999699e-01    1.0121721875e+05
    1.3653993607e-01    1.0121721875e+05
    1.3654989004e-01    1.0121721094e+05
    1.3655982912e-01    1.0121721094e+05
    1.3656978309e-01    1.0121719531e+05
    1.3657972217e-01    1.0121718750e+05
    1.3658998907e-01    1.0121717969e+05
    1.3659992814e-01    1.0121716406e+05
    1.3660988212e-01    1.0121716406e+05
    1.3661982119e-01    1.0121716406e+05
    1.3662977517e-01    1.0121715625e+05
    1.3663971424e-01    1.0121714844e+05
    1.3664998114e-01    1.0121714844e+05
    1.3665992022e-01    1.0121713281e+05
    1.3666987419e-01    1.0121712500e+05
    1.3667981327e-01    1.0121711719e+05
    1.3668976724e-01    1.0121710156e+05
    1.3669970632e-01    1.0121710156e+05
    1.3670995831e-01    1.0121710156e+05
    1.3671991229e-01    1.0121709375e+05
    1.3672985137e-01    1.0121708594e+05
    1.3673980534e-01    1.0121708594e+05
    1.3674974442e-01    1.0121707031e+05
    1.3675969839e-01    1.0121706250e+05
    1.3676995039e-01    1.0121705469e+05
    1.3677990437e-01    1.0121705469e+05
    1.3678984344e-01    1.0121703906e+05
    1.3679979742e-01    1.0121703906e+05
    1.3680973649e-01    1.0121703125e+05
    1.3682000339e-01    1.0121702344e+05
    1.3682994246e-01    1.0121702344e+05
    1.3683989644e-01    1.0121702344e+05
    1.3684983552e-01    1.0121700781e+05
    1.3685978949e-01    1.0121700000e+05
    1.3686972857e-01    1.0121699219e+05
    1.3687999547e-01    1.0121697656e+05
    1.3688993454e-01    1.0121697656e+05
    1.3689988852e-01    1.0121696875e+05
    1.3690982759e-01    1.0121696875e+05
    1.3691978157e-01    1.0121696094e+05
    1.3692972064e-01    1.0121696094e+05
    1.3693997264e-01    1.0121694531e+05
    1.3694992661e-01    1.0121693750e+05
    1.3695986569e-01    1.0121692969e+05
    1.3696981966e-01    1.0121692969e+05
    1.3697975874e-01    1.0121691406e+05
    1.3698971272e-01    1.0121691406e+05
    1.3699996471e-01    1.0121690625e+05
    1.3700991869e-01    1.0121689844e+05
    1.3701985776e-01    1.0121689844e+05
    1.3702981174e-01    1.0121689844e+05
    1.3703975081e-01    1.0121688281e+05
    1.3704970479e-01    1.0121687500e+05
    1.3705995679e-01    1.0121686719e+05
    1.3706991076e-01    1.0121685156e+05
    1.3707984984e-01    1.0121685156e+05
    1.3708980381e-01    1.0121685156e+05
    1.3709974289e-01    1.0121684375e+05
    1.3710969687e-01    1.0121683594e+05
    1.3711994886e-01    1.0121683594e+05
    1.3712988794e-01    1.0121683594e+05
    1.3713984191e-01    1.0121682031e+05
    1.3714978099e-01    1.0121681250e+05
    1.3715973496e-01    1.0121680469e+05
    1.3716998696e-01    1.0121678906e+05
    1.3717994094e-01    1.0121678906e+05
    1.3718988001e-01    1.0121678906e+05
    1.3719983399e-01    1.0121678125e+05
    1.3720977306e-01    1.0121677344e+05
    1.3721972704e-01    1.0121677344e+05
    1.3722997904e-01    1.0121677344e+05
    1.3723993301e-01    1.0121675781e+05
    1.3724987209e-01    1.0121675000e+05
    1.3725982606e-01    1.0121674219e+05
    1.3726976514e-01    1.0121674219e+05
    1.3727971911e-01    1.0121672656e+05
    1.3728997111e-01    1.0121672656e+05
    1.3729991019e-01    1.0121671875e+05
    1.3730986416e-01    1.0121671094e+05
    1.3731980324e-01    1.0121671094e+05
    1.3732975721e-01    1.0121671094e+05
    1.3733969629e-01    1.0121669531e+05
    1.3734996319e-01    1.0121668750e+05
    1.3735990226e-01    1.0121668750e+05
    1.3736985624e-01    1.0121667969e+05
    1.3737979531e-01    1.0121666406e+05
    1.3738974929e-01    1.0121666406e+05
    1.3739968836e-01    1.0121666406e+05
    1.3740995526e-01    1.0121665625e+05
    1.3741989434e-01    1.0121664844e+05
    1.3742984831e-01    1.0121664844e+05
    1.3743978739e-01    1.0121663281e+05
    1.3744974136e-01    1.0121663281e+05
    1.3745999336e-01    1.0121662500e+05
    1.3746994734e-01    1.0121661719e+05
    1.3747988641e-01    1.0121660156e+05
    1.3748984039e-01    1.0121660156e+05
    1.3749977946e-01    1.0121660156e+05
    1.3750973344e-01    1.0121659375e+05
    1.3751998544e-01    1.0121658594e+05
    1.3752992451e-01    1.0121658594e+05
    1.3753987849e-01    1.0121658594e+05
    1.3754981756e-01    1.0121657031e+05
    1.3755977154e-01    1.0121657031e+05
    1.3756971061e-01    1.0121656250e+05
    1.3757997751e-01    1.0121655469e+05
    1.3758991659e-01    1.0121653906e+05
    1.3759987056e-01    1.0121653906e+05
    1.3760980964e-01    1.0121653906e+05
    1.3761976361e-01    1.0121653125e+05
    1.3762970269e-01    1.0121652344e+05
    1.3763996959e-01    1.0121652344e+05
    1.3764990866e-01    1.0121652344e+05
    1.3765986264e-01    1.0121650781e+05
    1.3766980171e-01    1.0121650000e+05
    1.3767975569e-01    1.0121650000e+05
    1.3768969476e-01    1.0121649219e+05
    1.3769994676e-01    1.0121647656e+05
    1.3770990074e-01    1.0121647656e+05
    1.3771983981e-01    1.0121647656e+05
    1.3772979379e-01    1.0121646875e+05
    1.3773973286e-01    1.0121646094e+05
    1.3774999976e-01    1.0121646094e+05
    1.3775993884e-01    1.0121646094e+05
    1.3776989281e-01    1.0121644531e+05
    1.3777983189e-01    1.0121643750e+05
    1.3778978586e-01    1.0121643750e+05
    1.3779972494e-01    1.0121642969e+05
    1.3780999184e-01    1.0121641406e+05
    1.3781993091e-01    1.0121641406e+05
    1.3782988489e-01    1.0121641406e+05
    1.3783982396e-01    1.0121640625e+05
    1.3784977794e-01    1.0121639844e+05
    1.3785971701e-01    1.0121639844e+05
    1.3786998391e-01    1.0121639844e+05
    1.3787992299e-01    1.0121638281e+05
    1.3788987696e-01    1.0121637500e+05
    1.3789981604e-01    1.0121636719e+05
    1.3790977001e-01    1.0121636719e+05
    1.3791970909e-01    1.0121635156e+05
    1.3792996109e-01    1.0121635156e+05
    1.3793991506e-01    1.0121634375e+05
    1.3794985414e-01    1.0121633594e+05
    1.3795980811e-01    1.0121633594e+05
    1.3796974719e-01    1.0121633594e+05
    1.3797970116e-01    1.0121632031e+05
    1.3798995316e-01    1.0121631250e+05
    1.3799990714e-01    1.0121631250e+05
    1.3800984621e-01    1.0121630469e+05
    1.3801980019e-01    1.0121628906e+05
    1.3802973926e-01    1.0121628906e+05
    1.3803969324e-01    1.0121628906e+05
    1.3804994524e-01    1.0121628125e+05
    1.3805989921e-01    1.0121627344e+05
    1.3806983829e-01    1.0121627344e+05
    1.3807979226e-01    1.0121625781e+05
    1.3808973134e-01    1.0121625781e+05
    1.3809998333e-01    1.0121625000e+05
    1.3810993731e-01    1.0121624219e+05
    1.3811987638e-01    1.0121622656e+05
    1.3812983036e-01    1.0121622656e+05
    1.3813976943e-01    1.0121622656e+05
    1.3814972341e-01    1.0121621875e+05
    1.3815997541e-01    1.0121621094e+05
    1.3816992939e-01    1.0121621094e+05
    1.3817986846e-01    1.0121619531e+05
    1.3818982244e-01    1.0121619531e+05
    1.3819976151e-01    1.0121618750e+05
    1.3820971549e-01    1.0121617969e+05
    1.3821996748e-01    1.0121616406e+05
    1.3822992146e-01    1.0121616406e+05
    1.3823986053e-01    1.0121616406e+05
    1.3824981451e-01    1.0121615625e+05
    1.3825975358e-01    1.0121614844e+05
    1.3826970756e-01    1.0121614844e+05
    1.3827995956e-01    1.0121613281e+05
    1.3828991354e-01    1.0121612500e+05
    1.3829985261e-01    1.0121612500e+05
    1.3830980659e-01    1.0121611719e+05
    1.3831974566e-01    1.0121610156e+05
    1.3832969964e-01    1.0121610156e+05
    1.3833995163e-01    1.0121609375e+05
    1.3834989071e-01    1.0121608594e+05
    1.3835984468e-01    1.0121608594e+05
    1.3836978376e-01    1.0121608594e+05
    1.3837973773e-01    1.0121607031e+05
    1.3838998973e-01    1.0121606250e+05
    1.3839994371e-01    1.0121605469e+05
    1.3840988278e-01    1.0121603906e+05
    1.3841983676e-01    1.0121603906e+05
    1.3842977583e-01    1.0121603906e+05
    1.3843972981e-01    1.0121603125e+05
    1.3844998181e-01    1.0121602344e+05
    1.3845993578e-01    1.0121602344e+05
    1.3846987486e-01    1.0121600781e+05
    1.3847982883e-01    1.0121600000e+05
    1.3848976791e-01    1.0121600000e+05
    1.3849972188e-01    1.0121599219e+05
    1.3850997388e-01    1.0121597656e+05
    1.3851992786e-01    1.0121597656e+05
    1.3852986693e-01    1.0121596875e+05
    1.3853982091e-01    1.0121596875e+05
    1.3854975998e-01    1.0121596094e+05
    1.3855971396e-01    1.0121596094e+05
    1.3856996596e-01    1.0121594531e+05
    1.3857990503e-01    1.0121594531e+05
    1.3858985901e-01    1.0121593750e+05
    1.3859979808e-01    1.0121592969e+05
    1.3860975206e-01    1.0121592969e+05
    1.3861969113e-01    1.0121591406e+05
    1.3862995803e-01    1.0121591406e+05
    1.3863989711e-01    1.0121591406e+05
    1.3864985108e-01    1.0121590625e+05
    1.3865979016e-01    1.0121590625e+05
    1.3866974413e-01    1.0121589844e+05
    1.3867999613e-01    1.0121589844e+05
    1.3868995011e-01    1.0121589844e+05
    1.3869988918e-01    1.0121588281e+05
    1.3870984316e-01    1.0121587500e+05
    1.3871978223e-01    1.0121586719e+05
    1.3872973621e-01    1.0121586719e+05
    1.3873998821e-01    1.0121585156e+05
    1.3874992728e-01    1.0121585156e+05
    1.3875988126e-01    1.0121584375e+05
    1.3876982033e-01    1.0121583594e+05
    1.3877977431e-01    1.0121583594e+05
    1.3878971338e-01    1.0121582031e+05
    1.3879998028e-01    1.0121581250e+05
    1.3880991936e-01    1.0121580469e+05
    1.3881987333e-01    1.0121578906e+05
    1.3882981241e-01    1.0121578906e+05
    1.3883976638e-01    1.0121578125e+05
    1.3884970546e-01    1.0121577344e+05
    1.3885997236e-01    1.0121577344e+05
    1.3886991143e-01    1.0121575781e+05
    1.3887986541e-01    1.0121575000e+05
    1.3888980448e-01    1.0121574219e+05
    1.3889975846e-01    1.0121574219e+05
    1.3890969753e-01    1.0121572656e+05
    1.3891996443e-01    1.0121572656e+05
    1.3892990351e-01    1.0121571875e+05
    1.3893985748e-01    1.0121571094e+05
    1.3894979656e-01    1.0121571094e+05
    1.3895975053e-01    1.0121569531e+05
    1.3896968961e-01    1.0121568750e+05
    1.3897994161e-01    1.0121567969e+05
    1.3898989558e-01    1.0121566406e+05
    1.3899983466e-01    1.0121566406e+05
    1.3900978863e-01    1.0121565625e+05
    1.3901972771e-01    1.0121564844e+05
    1.3902999461e-01    1.0121564844e+05
    1.3903993368e-01    1.0121564844e+05
    1.3904988766e-01    1.0121563281e+05
    1.3905982673e-01    1.0121562500e+05
    1.3906978071e-01    1.0121561719e+05
    1.3907971978e-01    1.0121560156e+05
    1.3908998668e-01    1.0121560156e+05
    1.3909992576e-01    1.0121559375e+05
    1.3910987973e-01    1.0121559375e+05
    1.3911981881e-01    1.0121558594e+05
    1.3912977278e-01    1.0121558594e+05
    1.3913971186e-01    1.0121557031e+05
    1.3914997876e-01    1.0121556250e+05
    1.3915991783e-01    1.0121555469e+05
    1.3916987181e-01    1.0121555469e+05
    1.3917981088e-01    1.0121553906e+05
    1.3918976486e-01    1.0121553906e+05
    1.3919970393e-01    1.0121553125e+05
    1.3920995593e-01    1.0121552344e+05
    1.3921990991e-01    1.0121552344e+05
    1.3922984898e-01    1.0121552344e+05
    1.3923980296e-01    1.0121550781e+05
    1.3924974203e-01    1.0121550000e+05
    1.3925969601e-01    1.0121550000e+05
    1.3926994801e-01    1.0121549219e+05
    1.3927990198e-01    1.0121547656e+05
    1.3928984106e-01    1.0121547656e+05
    1.3929979503e-01    1.0121547656e+05
    1.3930973411e-01    1.0121546875e+05
    1.3932000101e-01    1.0121546094e+05
    1.3932994008e-01    1.0121546094e+05
    1.3933989406e-01    1.0121546094e+05
    1.3934983313e-01    1.0121544531e+05
    1.3935978711e-01    1.0121543750e+05
    1.3936972618e-01    1.0121543750e+05
    1.3937997818e-01    1.0121542969e+05
    1.3938993216e-01    1.0121541406e+05
    1.3939987123e-01    1.0121541406e+05
    1.3940982521e-01    1.0121541406e+05
    1.3941976428e-01    1.0121540625e+05
    1.3942971826e-01    1.0121540625e+05
    1.3943997025e-01    1.0121539844e+05
    1.3944992423e-01    1.0121539844e+05
    1.3945986331e-01    1.0121539844e+05
    1.3946981728e-01    1.0121538281e+05
    1.3947975636e-01    1.0121537500e+05
    1.3948971033e-01    1.0121537500e+05
    1.3949996233e-01    1.0121536719e+05
    1.3950991631e-01    1.0121535156e+05
    1.3951985538e-01    1.0121535156e+05
    1.3952980936e-01    1.0121535156e+05
    1.3953974843e-01    1.0121534375e+05
    1.3954970241e-01    1.0121534375e+05
    1.3955995440e-01    1.0121533594e+05
    1.3956990838e-01    1.0121533594e+05
    1.3957984746e-01    1.0121533594e+05
    1.3958980143e-01    1.0121532031e+05
    1.3959974051e-01    1.0121532031e+05
    1.3960999250e-01    1.0121531250e+05
    1.3961994648e-01    1.0121530469e+05
    1.3962988555e-01    1.0121530469e+05
    1.3963983953e-01    1.0121528906e+05
    1.3964977860e-01    1.0121528906e+05
    1.3965973258e-01    1.0121528906e+05
    1.3966998458e-01    1.0121528125e+05
    1.3967993855e-01    1.0121527344e+05
    1.3968987763e-01    1.0121527344e+05
    1.3969983160e-01    1.0121527344e+05
    1.3970977068e-01    1.0121527344e+05
    1.3971972466e-01    1.0121525781e+05
    1.3972997665e-01    1.0121525000e+05
    1.3973993063e-01    1.0121525000e+05
    1.3974986970e-01    1.0121524219e+05
    1.3975982368e-01    1.0121522656e+05
    1.3976976275e-01    1.0121522656e+05
    1.3977971673e-01    1.0121522656e+05
    1.3978996873e-01    1.0121521875e+05
    1.3979992270e-01    1.0121521875e+05
    1.3980986178e-01    1.0121521094e+05
    1.3981981575e-01    1.0121521094e+05
    1.3982975483e-01    1.0121521094e+05
    1.3983970881e-01    1.0121519531e+05
    1.3984996080e-01    1.0121519531e+05
    1.3985989988e-01    1.0121518750e+05
    1.3986985385e-01    1.0121517969e+05
    1.3987979293e-01    1.0121517969e+05
    1.3988974690e-01    1.0121516406e+05
    1.3989968598e-01    1.0121516406e+05
    1.3990995288e-01    1.0121516406e+05
    1.3991989195e-01    1.0121515625e+05
    1.3992984593e-01    1.0121514844e+05
    1.3993978500e-01    1.0121514844e+05
    1.3994973898e-01    1.0121514844e+05
    1.3995999098e-01    1.0121513281e+05
    1.3996994495e-01    1.0121513281e+05
    1.3997988403e-01    1.0121512500e+05
    1.3998983800e-01    1.0121511719e+05
    1.3999977708e-01    1.0121511719e+05
endcurve
