Curveplot
LS-DYNA keyword deck by LS-PrePost                          
Time
Pressure
Defined Connection
Pressure @ 13 #pts=12001
* Minval=     8.0247078125e+04 at time=         0.0189099517
* Maxval=     2.3071845312e+05 at time=         0.0078799184
    0.0000000000e+00    1.0120000000e+05
    9.9485332612e-06    1.0120000000e+05
    1.9897419406e-05    1.0120000000e+05
    2.9947379517e-05    1.0120000000e+05
    3.9941383875e-05    1.0120000000e+05
    4.9977919844e-05    1.0120000000e+05
    5.9987072746e-05    1.0120000000e+05
    6.9957306550e-05    1.0120000000e+05
    7.9953846580e-05    1.0120000000e+05
    8.9994289738e-05    1.0120000000e+05
    9.9962584500e-05    1.0120000000e+05
    1.0999273945e-04    1.0120000000e+05
    1.1993953376e-04    1.0120000000e+05
    1.2999899627e-04    1.0120000000e+05
    1.3995313202e-04    1.0120000000e+05
    1.4993577497e-04    1.0120000000e+05
    1.5994148271e-04    1.0120000000e+05
    1.6996450722e-04    1.0120000000e+05
    1.7999917327e-04    1.0120000000e+05
    1.8996039580e-04    1.0120000000e+05
    1.9999772485e-04    1.0120000000e+05
    2.0994692750e-04    1.0120000000e+05
    2.1996170108e-04    1.0120000000e+05
    2.2995563631e-04    1.0120000000e+05
    2.3992262140e-04    1.0120000000e+05
    2.4994110572e-04    1.0120000000e+05
    2.5992144947e-04    1.0120000000e+05
    2.6994472137e-04    1.0120000000e+05
    2.7991883690e-04    1.0120000000e+05
    2.8992659645e-04    1.0120000000e+05
    2.9996412923e-04    1.0120000000e+05
    3.0993478140e-04    1.0120000000e+05
    3.1992731965e-04    1.0120000000e+05
    3.2993583591e-04    1.0120000000e+05
    3.3995104604e-04    1.0120000000e+05
    3.4996538307e-04    1.0120000000e+05
    3.5997171653e-04    1.0120000000e+05
    3.6996812560e-04    1.0120000000e+05
    3.7995146704e-04    1.0120000000e+05
    3.8992305053e-04    1.0120000000e+05
    3.9997961721e-04    1.0120000000e+05
    4.0992023423e-04    1.0120000000e+05
    4.1994254570e-04    1.0120000000e+05
    4.2994806427e-04    1.0120000000e+05
    4.3993347208e-04    1.0120000000e+05
    4.4989728485e-04    1.0120000000e+05
    4.5994122047e-04    1.0120000000e+05
    4.6996370656e-04    1.0120000000e+05
    4.7996142530e-04    1.0120000000e+05
    4.8993283417e-04    1.0120000000e+05
    4.9998192117e-04    1.0120000000e+05
    5.0989596639e-04    1.0120000000e+05
    5.1988998894e-04    1.0120000000e+05
    5.2996410523e-04    1.0120000000e+05
    5.3989526350e-04    1.0120000000e+05
    5.4990302306e-04    1.0120000000e+05
    5.5999233155e-04    1.0120000000e+05
    5.6993268663e-04    1.0120000000e+05
    5.7995074894e-04    1.0120000000e+05
    5.8993097628e-04    1.0120000000e+05
    5.9998693177e-04    1.0120000000e+05
    6.0988723999e-04    1.0120000000e+05
    6.1998289311e-04    1.0120000000e+05
    6.2991725281e-04    1.0120000000e+05
    6.3992792275e-04    1.0120000000e+05
    6.4989330713e-04    1.0120000000e+05
    6.5993372118e-04    1.0120000000e+05
    6.6992954817e-04    1.0120000000e+05
    6.7987694638e-04    1.0120000000e+05
    6.8989995634e-04    1.0120000000e+05
    6.9999945117e-04    1.0120000000e+05
    7.0991925895e-04    1.0120000000e+05
    7.1991496952e-04    1.0120000000e+05
    7.2998699034e-04    1.0120000000e+05
    7.3987449287e-04    1.0120000000e+05
    7.4996735202e-04    1.0120000000e+05
    7.5987167656e-04    1.0120000000e+05
    7.6998327859e-04    1.0120000000e+05
    7.7989941929e-04    1.0120000000e+05
    7.8989204485e-04    1.0120000000e+05
    7.9995911801e-04    1.0120000000e+05
    8.0996408360e-04    1.0120000000e+05
    8.1990478793e-04    1.0120000000e+05
    8.2991871750e-04    1.0120000000e+05
    8.3986623213e-04    1.0120000000e+05
    8.4988551680e-04    1.0120000000e+05
    8.5997779388e-04    1.0120000000e+05
    8.6985947564e-04    1.0120000000e+05
    8.7995751528e-04    1.0120000000e+05
    8.8998413412e-04    1.0120000000e+05
    8.9993712027e-04    1.0120000000e+05
    9.0996222571e-04    1.0120000000e+05
    9.1991119552e-04    1.0120000000e+05
    9.2992890859e-04    1.0120000000e+05
    9.3986594584e-04    1.0120000000e+05
    9.4987888588e-04    1.0120000000e+05
    9.5996377058e-04    1.0120000000e+05
    9.6996710636e-04    1.0120000000e+05
    9.7988627385e-04    1.0120000000e+05
    9.8987563979e-04    1.0120000000e+05
    9.9993566982e-04    1.0120000000e+05
    1.0099086212e-03    1.0120000000e+05
    1.0199518874e-03    1.0120000000e+05
    1.0299013229e-03    1.0120000000e+05
    1.0399229359e-03    1.0120000000e+05
    1.0498526972e-03    1.0120000000e+05
    1.0598510271e-03    1.0120000000e+05
    1.0699190898e-03    1.0120000000e+05
    1.0798906442e-03    1.0120000000e+05
    1.0899308836e-03    1.0120000000e+05
    1.0998715879e-03    1.0120000000e+05
    1.1098801624e-03    1.0120000000e+05
    1.1199573055e-03    1.0120000000e+05
    1.1299313046e-03    1.0120000000e+05
    1.1399729410e-03    1.0120000000e+05
    1.1499081738e-03    1.0120000000e+05
    1.1599101126e-03    1.0120000000e+05
    1.1699730530e-03    1.0120000000e+05
    1.1799322674e-03    1.0120000000e+05
    1.1899577221e-03    1.0120000000e+05
    1.1998695554e-03    1.0120000000e+05
    1.2098468142e-03    1.0120000000e+05
    1.2198900804e-03    1.0120000000e+05
    1.2298156507e-03    1.0120000000e+05
    1.2399917468e-03    1.0120000000e+05
    1.2498623691e-03    1.0120000000e+05
    1.2599849142e-03    1.0120000000e+05
    1.2699852232e-03    1.0120000000e+05
    1.2798602693e-03    1.0120000000e+05
    1.2899906142e-03    1.0120000000e+05
    1.2999946484e-03    1.0120000000e+05
    1.3098694617e-03    1.0120000000e+05
    1.3198073721e-03    1.0120000000e+05
    1.3298089616e-03    1.0120000000e+05
    1.3398752781e-03    1.0120000000e+05
    1.3498073677e-03    1.0120000000e+05
    1.3598019723e-03    1.0120000000e+05
    1.3698518742e-03    1.0120000000e+05
    1.3799747685e-03    1.0120000000e+05
    1.3899601763e-03    1.0120000000e+05
    1.3998036738e-03    1.0120000000e+05
    1.4099158579e-03    1.0120000000e+05
    1.4198847348e-03    1.0120000000e+05
    1.4299165923e-03    1.0120000000e+05
    1.4398015337e-03    1.0120000000e+05
    1.4499607496e-03    1.0120000000e+05
    1.4599714195e-03    1.0120000000e+05
    1.4698305167e-03    1.0120000000e+05
    1.4799676137e-03    1.0120000000e+05
    1.4899513917e-03    1.0120000000e+05
    1.4999980340e-03    1.0120000000e+05
    1.5098878648e-03    1.0120000000e+05
    1.5198392794e-03    1.0120000000e+05
    1.5298529761e-03    1.0120000000e+05
    1.5399297699e-03    1.0120000000e+05
    1.5498439316e-03    1.0120000000e+05
    1.5598195605e-03    1.0120000000e+05
    1.5698584029e-03    1.0120000000e+05
    1.5799592948e-03    1.0120000000e+05
    1.5898935962e-03    1.0120000000e+05
    1.5998884337e-03    1.0120000000e+05
    1.6099459026e-03    1.0120000000e+05
    1.6198316589e-03    1.0120000000e+05
    1.6297787661e-03    1.0120000000e+05
    1.6397874570e-03    1.0120000000e+05
    1.6498586629e-03    1.0120000000e+05
    1.6599936644e-03    1.0120000000e+05
    1.6699489206e-03    1.0120000000e+05
    1.6799651785e-03    1.0120000000e+05
    1.6897970345e-03    1.0120000000e+05
    1.6999390209e-03    1.0120000000e+05
    1.7098941607e-03    1.0120000000e+05
    1.7199122813e-03    1.0120000000e+05
    1.7299921019e-03    1.0120000000e+05
    1.7398819327e-03    1.0120000000e+05
    1.7498327652e-03    1.0120000000e+05
    1.7598451814e-03    1.0120000000e+05
    1.7699203454e-03    1.0120000000e+05
    1.7797983019e-03    1.0120000000e+05
    1.7899998929e-03    1.0120000000e+05
    1.7997385003e-03    1.0120000000e+05
    1.8098021392e-03    1.0120000000e+05
    1.8199291080e-03    1.0120000000e+05
    1.8298514187e-03    1.0120000000e+05
    1.8398358952e-03    1.0120000000e+05
    1.8498825375e-03    1.0120000000e+05
    1.8599929754e-03    1.0120000000e+05
    1.8698915374e-03    1.0120000000e+05
    1.8798520323e-03    1.0120000000e+05
    1.8898750423e-03    1.0120000000e+05
    1.8999611493e-03    1.0120000000e+05
    1.9098286284e-03    1.0120000000e+05
    1.9197578076e-03    1.0120000000e+05
    1.9297428662e-03    1.0120000000e+05
    1.9397909055e-03    1.0120000000e+05
    1.9499097252e-03    1.0120000000e+05
    1.9598016515e-03    1.0120000000e+05
    1.9697553944e-03    1.0120000000e+05
    1.9797722343e-03    1.0120000000e+05
    1.9898531027e-03    1.0120000000e+05
    1.9999986980e-03    1.0120000000e+05
    2.0099089015e-03    1.0120000000e+05
    2.0198817365e-03    1.0120000000e+05
    2.0299183670e-03    1.0120000000e+05
    2.0397121552e-03    1.0120000000e+05
    2.0498768426e-03    1.0120000000e+05
    2.0597970579e-03    1.0120000000e+05
    2.0697806031e-03    1.0120000000e+05
    2.0798284095e-03    1.0120000000e+05
    2.0899414085e-03    1.0120000000e+05
    2.0998015534e-03    1.0120000000e+05
    2.1097247954e-03    1.0120000000e+05
    2.1197120659e-03    1.0120000000e+05
    2.1297642961e-03    1.0120000000e+05
    2.1398824174e-03    1.0120000000e+05
    2.1497376729e-03    1.0120000000e+05
    2.1599882748e-03    1.0120000000e+05
    2.1699669305e-03    1.0120000000e+05
    2.1796822548e-03    1.0120000000e+05
    2.1897978149e-03    1.0120000000e+05
    2.1999811288e-03    1.0120000000e+05
    2.2098904010e-03    1.0120000000e+05
    2.2198646329e-03    1.0120000000e+05
    2.2299049888e-03    1.0120000000e+05
    2.2396629211e-03    1.0120000000e+05
    2.2498364560e-03    1.0120000000e+05
    2.2597250063e-03    1.0120000000e+05
    2.2696792148e-03    1.0120000000e+05
    2.2797000129e-03    1.0120000000e+05
    2.2897887975e-03    1.0120000000e+05
    2.2999462672e-03    1.0120000000e+05
    2.3098073434e-03    1.0120000000e+05
    2.3197347764e-03    1.0120000000e+05
    2.3297290318e-03    1.0120000000e+05
    2.3397863843e-03    1.0120000000e+05
    2.3499189410e-03    1.0120000000e+05
    2.3597427644e-03    1.0120000000e+05
    2.3696334101e-03    1.0120000000e+05
    2.3799762130e-03    1.0120000000e+05
    2.3896188941e-03    1.0120000000e+05
    2.3997162934e-03    1.0120000000e+05
    2.4098847061e-03    1.0120000000e+05
    2.4197306484e-03    1.0120000000e+05
    2.4296448100e-03    1.0120000000e+05
    2.4396283552e-03    1.0120000000e+05
    2.4496824481e-03    1.0120000000e+05
    2.4598040618e-03    1.0120000000e+05
    2.4699978530e-03    1.0120000000e+05
    2.4798591621e-03    1.0120000000e+05
    2.4897900876e-03    1.0120000000e+05
    2.4997924920e-03    1.0120000000e+05
    2.5098673068e-03    1.0120000000e+05
    2.5195914786e-03    1.0120000000e+05
    2.5298120454e-03    1.0120000000e+05
    2.5396784768e-03    1.0120000000e+05
    2.5496082380e-03    1.0120000000e+05
    2.5595948100e-03    1.0120000000e+05
    2.5696225930e-03    1.0120000000e+05
    2.5796887930e-03    1.0120000000e+05
    2.5897847954e-03    1.0120000000e+05
    2.5999033824e-03    1.0120000000e+05
    2.6096103247e-03    1.0120000000e+05
    2.6197722182e-03    1.0120000000e+05
    2.6299697347e-03    1.0120000000e+05
    2.6397139300e-03    1.0120000000e+05
    2.6499088854e-03    1.0120000000e+05
    2.6596854441e-03    1.0120000000e+05
    2.6698822621e-03    1.0120000000e+05
    2.6796613820e-03    1.0120000000e+05
    2.6898749638e-03    1.0120000000e+05
    2.6996133383e-03    1.0120000000e+05
    2.7098164428e-03    1.0120000000e+05
    2.7195881121e-03    1.0120000000e+05
    2.7297828346e-03    1.0120000000e+05
    2.7399638202e-03    1.0120000000e+05
    2.7497136034e-03    1.0120000000e+05
    2.7598931920e-03    1.0120000000e+05
    2.7696473990e-03    1.0120000000e+05
    2.7798151132e-03    1.0120000000e+05
    2.7899735142e-03    1.0120000000e+05
    2.7997021098e-03    1.0120000000e+05
    2.8099147603e-03    1.0120000000e+05
    2.8196002822e-03    1.0120000000e+05
    2.8297461104e-03    1.0120000000e+05
    2.8398870490e-03    1.0120000000e+05
    2.8496037703e-03    1.0120000000e+05
    2.8597267810e-03    1.0120000000e+05
    2.8698635288e-03    1.0120000000e+05
    2.8796640690e-03    1.0120000000e+05
    2.8898764867e-03    1.0120000000e+05
    2.8996237088e-03    1.0120000000e+05
    2.9098712839e-03    1.0120000000e+05
    2.9196962714e-03    1.0120000000e+05
    2.9299838934e-03    1.0120000000e+05
    2.9398375191e-03    1.0120000000e+05
    2.9496964999e-03    1.0120000000e+05
    2.9595650267e-03    1.0120000000e+05
    2.9699092265e-03    1.0120000000e+05
    2.9798098840e-03    1.0120000000e+05
    2.9897175264e-03    1.0120000000e+05
    2.9996263329e-03    1.0120000000e+05
    3.0099784490e-03    1.0120000000e+05
    3.0199014582e-03    1.0120000000e+05
    3.0298305210e-03    1.0120000000e+05
    3.0397367664e-03    1.0120000000e+05
    3.0496267136e-03    1.0120000000e+05
    3.0599604361e-03    1.0120000000e+05
    3.0698231421e-03    1.0120000000e+05
    3.0796488281e-03    1.0120000000e+05
    3.0899138656e-03    1.0120000000e+05
    3.0996890273e-03    1.0120000000e+05
    3.1098807231e-03    1.0120000000e+05
    3.1195764896e-03    1.0120000000e+05
    3.1296659727e-03    1.0120000000e+05
    3.1396946870e-03    1.0120000000e+05
    3.1496628653e-03    1.0120000000e+05
    3.1595721375e-03    1.0120000000e+05
    3.1698495150e-03    1.0120000000e+05
    3.1796391122e-03    1.0120000000e+05
    3.1897909939e-03    1.0120000000e+05
    3.1998837367e-03    1.0120000000e+05
    3.2099157106e-03    1.0120000000e+05
    3.2198871486e-03    1.0120000000e+05
    3.2297994476e-03    1.0120000000e+05
    3.2396526076e-03    1.0120000000e+05
    3.2498547807e-03    1.0120000000e+05
    3.2599919941e-03    1.0120000000e+05
    3.2696679700e-03    1.0120000000e+05
    3.2796871383e-03    1.0120000000e+05
    3.2896457706e-03    1.0120000000e+05
    3.2999396790e-03    1.0120000000e+05
    3.3097770065e-03    1.0120000000e+05
    3.3199456520e-03    1.0120000000e+05
    3.3296628390e-03    1.0120000000e+05
    3.3397078514e-03    1.0120000000e+05
    3.3496925607e-03    1.0120000000e+05
    3.3599967137e-03    1.0120000000e+05
    3.3698575571e-03    1.0120000000e+05
    3.3796583302e-03    1.0120000000e+05
    3.3897731919e-03    1.0120000000e+05
    3.3998205326e-03    1.0120000000e+05
    3.4098092001e-03    1.0120000000e+05
    3.4197354689e-03    1.0120000000e+05
    3.4299639519e-03    1.0120000000e+05
    3.4397649579e-03    1.0120000000e+05
    3.4498644527e-03    1.0120000000e+05
    3.4598966595e-03    1.0120000000e+05
    3.4698660020e-03    1.0120000000e+05
    3.4797717817e-03    1.0120000000e+05
    3.4899646416e-03    1.0120000000e+05
    3.4997416660e-03    1.0120000000e+05
    3.5098020453e-03    1.0120000000e+05
    3.5197956022e-03    1.0120000000e+05
    3.5297230352e-03    1.0120000000e+05
    3.5399233457e-03    1.0120000000e+05
    3.5497169010e-03    1.0120000000e+05
    3.5597793758e-03    1.0120000000e+05
    3.5697729327e-03    1.0120000000e+05
    3.5796973389e-03    1.0120000000e+05
    3.5898811184e-03    1.0120000000e+05
    3.5999917891e-03    1.0120000000e+05
    3.6097075790e-03    1.0120000000e+05
    3.6199961323e-03    1.0120000000e+05
    3.6298905034e-03    1.0120000000e+05
    3.6397133954e-03    1.0120000000e+05
    3.6497784313e-03    1.0120000000e+05
    3.6597680300e-03    1.0120000000e+05
    3.6699906923e-03    1.0120000000e+05
    3.6798273213e-03    1.0120000000e+05
    3.6898928229e-03    1.0120000000e+05
    3.6998789292e-03    1.0120000000e+05
    3.7097854074e-03    1.0120000000e+05
    3.7199098151e-03    1.0120000000e+05
    3.7299504038e-03    1.0120000000e+05
    3.7399074063e-03    1.0120000000e+05
    3.7497803569e-03    1.0120000000e+05
    3.7598565686e-03    1.0120000000e+05
    3.7698438391e-03    1.0120000000e+05
    3.7797430996e-03    1.0120000000e+05
    3.7898328155e-03    1.0120000000e+05
    3.7998287007e-03    1.0120000000e+05
    3.8097305223e-03    1.0120000000e+05
    3.8198095281e-03    1.0120000000e+05
    3.8297886495e-03    1.0120000000e+05
    3.8399340119e-03    1.0120000000e+05
    3.8499736693e-03    1.0120000000e+05
    3.8599073887e-03    1.0120000000e+05
    3.8699915167e-03    1.0120000000e+05
    3.8799631875e-03    1.0120000000e+05
    3.8898210041e-03    1.0120000000e+05
    3.8998138625e-03    1.0120000000e+05
    3.9099310525e-03    1.0120000000e+05
    3.9199204184e-03    1.0120000000e+05
    3.9297807962e-03    1.0120000000e+05
    3.9399820380e-03    1.0120000000e+05
    3.9498065598e-03    1.0120000000e+05
    3.9599491283e-03    1.0120000000e+05
    3.9699361660e-03    1.0120000000e+05
    3.9799869992e-03    1.0120000000e+05
    3.9898706600e-03    1.0120000000e+05
    3.9997980930e-03    1.0120000000e+05
    4.0099634789e-03    1.0120000000e+05
    4.0199276991e-03    1.0120000000e+05
    4.0298858657e-03    1.0120000000e+05
    4.0398198180e-03    1.0120000000e+05
    4.0498999879e-03    1.0120000000e+05
    4.0599009953e-03    1.0120000000e+05
    4.0699769743e-03    1.0120000000e+05
    4.0799062699e-03    1.0120000000e+05
    4.0899878368e-03    1.0120000000e+05
    4.0999772027e-03    1.0120000000e+05
    4.1099479422e-03    1.0120000000e+05
    4.1199177504e-03    1.0120000000e+05
    4.1299462318e-03    1.0120000000e+05
    4.1399979964e-03    1.0120000000e+05
    4.1499878280e-03    1.0120000000e+05
    4.1598859243e-03    1.0120000000e+05
    4.1699651629e-03    1.0120000000e+05
    4.1799233295e-03    1.0120000000e+05
    4.1898684576e-03    1.0120000000e+05
    4.1999556124e-03    1.0120000000e+05
    4.2099487036e-03    1.0120000000e+05
    4.2198402807e-03    1.0120000000e+05
    4.2299297638e-03    1.0120000000e+05
    4.2398436926e-03    1.0120000000e+05
    4.2498856783e-03    1.0120000000e+05
    4.2598722503e-03    1.0120000000e+05
    4.2699808255e-03    1.0120000000e+05
    4.2799250223e-03    1.0120000000e+05
    4.2899125256e-03    1.0120000000e+05
    4.2998674326e-03    1.0120000000e+05
    4.3098889291e-03    1.0120000000e+05
    4.3198517524e-03    1.0120000000e+05
    4.3298662640e-03    1.0120000000e+05
    4.3399892747e-03    1.0120000000e+05
    4.3499767780e-03    1.0120000000e+05
    4.3598758057e-03    1.0120000000e+05
    4.3699964881e-03    1.0120000000e+05
    4.3798335828e-03    1.0120000000e+05
    4.3899039738e-03    1.0120000000e+05
    4.3998463079e-03    1.0120000000e+05
    4.4098347425e-03    1.0120000000e+05
    4.4199032709e-03    1.0120000000e+05
    4.4299913570e-03    1.0120000000e+05
    4.4399611652e-03    1.0120000000e+05
    4.4499575160e-03    1.0120000000e+05
    4.4598309323e-03    1.0120000000e+05
    4.4699190184e-03    1.0120000000e+05
    4.4798725285e-03    1.0120000000e+05
    4.4898474589e-03    1.0120000000e+05
    4.4998871163e-03    1.0120000000e+05
    4.5099570416e-03    1.0120000000e+05
    4.5198630542e-03    1.0120000000e+05
    4.5298212208e-03    1.0120000000e+05
    4.5399987139e-03    1.0120000000e+05
    4.5498358086e-03    1.0120000000e+05
    4.5598717406e-03    1.0120000000e+05
    4.5699933544e-03    1.0120000000e+05
    4.5798928477e-03    1.0120000000e+05
    4.5898812823e-03    1.0120000000e+05
    4.5998585410e-03    1.0120000000e+05
    4.6098940074e-03    1.0120000000e+05
    4.6199695207e-03    1.0120000000e+05
    4.6298298985e-03    1.0120000000e+05
    4.6397894621e-03    1.0120000000e+05
    4.6499054879e-03    1.0120000000e+05
    4.6599335037e-03    1.0120000000e+05
    4.6699112281e-03    1.0120000000e+05
    4.6799629927e-03    1.0120000000e+05
    4.6898326837e-03    1.0120000000e+05
    4.6999147162e-03    1.0120000000e+05
    4.7098621726e-03    1.0120000000e+05
    4.7197961248e-03    1.0120000000e+05
    4.7297915444e-03    1.0120000000e+05
    4.7398055904e-03    1.0120000000e+05
    4.7498503700e-03    1.0120000000e+05
    4.7599384561e-03    1.0120000000e+05
    4.7698244452e-03    1.0120000000e+05
    4.7799660824e-03    1.0120000000e+05
    4.7899172641e-03    1.0120000000e+05
    4.7998861410e-03    1.0120000000e+05
    4.8098978586e-03    1.0120000000e+05
    4.8199235462e-03    1.0120000000e+05
    4.8299832270e-03    1.0120000000e+05
    4.8398445360e-03    1.0120000000e+05
    4.8499433324e-03    1.0120000000e+05
    4.8598553985e-03    1.0120000000e+05
    4.8697851598e-03    1.0120000000e+05
    4.8799598590e-03    1.0120000000e+05
    4.8899366520e-03    1.0120000000e+05
    4.8999283463e-03    1.0120000000e+05
    4.9099479802e-03    1.0120000000e+05
    4.9199876375e-03    1.0120000000e+05
    4.9298116937e-03    1.0120000000e+05
    4.9398895353e-03    1.0120000000e+05
    4.9499864690e-03    1.0120000000e+05
    4.9598659389e-03    1.0120000000e+05
    4.9699996598e-03    1.0120000000e+05
    4.9799187109e-03    1.0120000000e+05
    4.9898475409e-03    1.0120000000e+05
    4.9998001195e-03    1.0120000000e+05
    5.0099981017e-03    1.0120000000e+05
    5.0199739635e-03    1.0120000000e+05
    5.0299698487e-03    1.0120000000e+05
    5.0399792381e-03    1.0120000000e+05
    5.0499951467e-03    1.0120000000e+05
    5.0597940572e-03    1.0120000000e+05
    5.0698383711e-03    1.0120000000e+05
    5.0798919983e-03    1.0120000000e+05
    5.0899554044e-03    1.0120000000e+05
    5.0997943617e-03    1.0120000000e+05
    5.1098768599e-03    1.0120000000e+05
    5.1199654117e-03    1.0120000000e+05
    5.1298295148e-03    1.0120000000e+05
    5.1399320364e-03    1.0120000000e+05
    5.1498035900e-03    1.0120000000e+05
    5.1599135622e-03    1.0120000000e+05
    5.1697902381e-03    1.0120000000e+05
    5.1799016073e-03    1.0120000000e+05
    5.1897787489e-03    1.0120000000e+05
    5.1998915151e-03    1.0120000000e+05
    5.2097691223e-03    1.0120000000e+05
    5.2198823541e-03    1.0120000000e+05
    5.2299960516e-03    1.0120000000e+05
    5.2398745902e-03    1.0120000000e+05
    5.2499882877e-03    1.0120000000e+05
    5.2598663606e-03    1.0120000000e+05
    5.2699795924e-03    1.0120000000e+05
    5.2798576653e-03    1.0120000000e+05
    5.2899704315e-03    1.0120000000e+05
    5.2998475730e-03    1.0120000000e+05
    5.3099598736e-03    1.0120000000e+05
    5.3198360838e-03    1.0120000000e+05
    5.3299469873e-03    1.0120000000e+05
    5.3398227319e-03    1.0120000000e+05
    5.3499322385e-03    1.0120000000e+05
    5.3598065861e-03    1.0120000000e+05
    5.3699156269e-03    1.0120000000e+05
    5.3797871806e-03    1.0120000000e+05
    5.3898934275e-03    1.0120000000e+05
    5.3997659124e-03    1.0120000000e+05
    5.4098702967e-03    1.0120000000e+05
    5.4199709557e-03    1.0120000000e+05
    5.4298425093e-03    1.0120000000e+05
    5.4399506189e-03    1.0120000000e+05
    5.4498142563e-03    1.0120000000e+05
    5.4599232972e-03    1.0120000000e+05
    5.4698148742e-03    1.0120000000e+05
    5.4799262434e-03    1.0120000000e+05
    5.4898085073e-03    1.0120000000e+05
    5.4999538697e-03    1.0120000000e+05
    5.5098561570e-03    1.0120000000e+05
    5.5199908093e-03    1.0120000000e+05
    5.5299149826e-03    1.0120000000e+05
    5.5398489349e-03    1.0120000000e+05
    5.5497721769e-03    1.0120000000e+05
    5.5599454790e-03    1.0120000000e+05
    5.5699050426e-03    1.0120000000e+05
    5.5798571557e-03    1.0120000000e+05
    5.5898115970e-03    1.0120000000e+05
    5.5997888558e-03    1.0120000000e+05
    5.6097717024e-03    1.0120000000e+05
    5.6199892424e-03    1.0120000000e+05
    5.6299814023e-03    1.0120000000e+05
    5.6399889290e-03    1.0120000000e+05
    5.6499964558e-03    1.0120000000e+05
    5.6597697549e-03    1.0120000000e+05
    5.6697949767e-03    1.0120000000e+05
    5.6798281148e-03    1.0120000000e+05
    5.6898649782e-03    1.0120000000e+05
    5.6999102235e-03    1.0120000000e+05
    5.7099638507e-03    1.0120000000e+05
    5.7197837159e-03    1.0120000000e+05
    5.7298513129e-03    1.0120000000e+05
    5.7399263605e-03    1.0120000000e+05
    5.7497671805e-03    1.0120000000e+05
    5.7598538697e-03    1.0120000000e+05
    5.7699503377e-03    1.0120000000e+05
    5.7798116468e-03    1.0120000000e+05
    5.7899169624e-03    1.0120000000e+05
    5.7997903787e-03    1.0120000000e+05
    5.8099138550e-03    1.0120000000e+05
    5.8198003098e-03    1.0120000000e+05
    5.8299317025e-03    1.0120000000e+05
    5.8398284018e-03    1.0120000000e+05
    5.8499760926e-03    1.0120000000e+05
    5.8598844334e-03    1.0120000000e+05
    5.8697997592e-03    1.0120000000e+05
    5.8799642138e-03    1.0120000000e+05
    5.8898967691e-03    1.0120000000e+05
    5.8998339809e-03    1.0120000000e+05
    5.9097744524e-03    1.0120000000e+05
    5.9199626558e-03    1.0120000000e+05
    5.9299143031e-03    1.0120000000e+05
    5.9398720041e-03    1.0120000000e+05
    5.9498324990e-03    1.0120000000e+05
    5.9597981162e-03    1.0120000000e+05
    5.9697721153e-03    1.0120000000e+05
    5.9799961746e-03    1.0120000000e+05
    5.9899794869e-03    1.0120000000e+05
    5.9999679215e-03    1.0120000000e+05
    6.0099619441e-03    1.0120000000e+05
    6.0199638829e-03    1.0120000000e+05
    6.0299681500e-03    1.0120000000e+05
    6.0399752110e-03    1.0120000000e+05
    6.0499906540e-03    1.0120000000e+05
    6.0597676784e-03    1.0120000000e+05
    6.0697942972e-03    1.0120000000e+05
    6.0798227787e-03    1.0120000000e+05
    6.0898568481e-03    1.0120000000e+05
    6.0998979025e-03    1.0120000000e+05
    6.1099422164e-03    1.0120000000e+05
    6.1199888587e-03    1.0120000000e+05
    6.1297928914e-03    1.0120000000e+05
    6.1398511752e-03    1.0120000000e+05
    6.1499155127e-03    1.0120000000e+05
    6.1599803157e-03    1.0120000000e+05
    6.1698034406e-03    1.0120000000e+05
    6.1798784882e-03    1.0120000000e+05
    6.1899591237e-03    1.0120000000e+05
    6.1997966841e-03    1.0120000000e+05
    6.2098810449e-03    1.0120000000e+05
    6.2199714594e-03    1.0120000000e+05
    6.2298220582e-03    1.0120000000e+05
    6.2399217859e-03    1.0120000000e+05
    6.2497765757e-03    1.0120000000e+05
    6.2598818913e-03    1.0120000000e+05
    6.2699937262e-03    1.0120000000e+05
    6.2798629515e-03    1.0120000000e+05
    6.2899775803e-03    1.0120000000e+05
    6.2998495996e-03    1.0120000000e+05
    6.3099726103e-03    1.0120000000e+05
    6.3198548742e-03    1.0120000000e+05
    6.3299848698e-03    1.0120000000e+05
    6.3398699276e-03    1.0120000000e+05
    6.3497629017e-03    1.0120000000e+05
    6.3599031419e-03    1.0120000000e+05
    6.3698003069e-03    1.0120000000e+05
    6.3799438067e-03    1.0120000000e+05
    6.3898479566e-03    1.0120000000e+05
    6.3997604884e-03    1.0120000000e+05
    6.4099179581e-03    1.0120000000e+05
    6.4198249020e-03    1.0120000000e+05
    6.4299777150e-03    1.0120000000e+05
    6.4399000257e-03    1.0120000000e+05
    6.4498325810e-03    1.0120000000e+05
    6.4597674645e-03    1.0120000000e+05
    6.4699482173e-03    1.0120000000e+05
    6.4798775129e-03    1.0120000000e+05
    6.4898068085e-03    1.0120000000e+05
    6.4999824390e-03    1.0120000000e+05
    6.5099140629e-03    1.0120000000e+05
    6.5198550001e-03    1.0120000000e+05
    6.5297945403e-03    1.0120000000e+05
    6.5399799496e-03    1.0120000000e+05
    6.5499143675e-03    1.0120000000e+05
    6.5598483197e-03    1.0120000000e+05
    6.5697804093e-03    1.0120000000e+05
    6.5799611621e-03    1.0120000000e+05
    6.5898983739e-03    1.0120000000e+05
    6.5998430364e-03    1.0120000000e+05
    6.6097900271e-03    1.0120000000e+05
    6.6199838184e-03    1.0120000000e+05
    6.6299275495e-03    1.0120000000e+05
    6.6398694180e-03    1.0120000000e+05
    6.6498112865e-03    1.0120000000e+05
    6.6597531550e-03    1.0120000000e+05
    6.6699427553e-03    1.0120000000e+05
    6.6798850894e-03    1.0120000000e+05
    6.6898274235e-03    1.0120000000e+05
    6.6997697577e-03    1.0120000000e+05
    6.7099598236e-03    1.0120000000e+05
    6.7199012265e-03    1.0120000000e+05
    6.7298426293e-03    1.0120000000e+05
    6.7397844978e-03    1.0120000000e+05
    6.7499745637e-03    1.0120000000e+05
    6.7599164322e-03    1.0120000000e+05
    6.7698578350e-03    1.0120000000e+05
    6.7797992378e-03    1.0120000000e+05
    6.7899883725e-03    1.0120000000e+05
    6.7999288440e-03    1.0120000000e+05
    6.8098693155e-03    1.0120000000e+05
    6.8198093213e-03    1.0120000000e+05
    6.8299970590e-03    1.0120000000e+05
    6.8399361335e-03    1.0120000000e+05
    6.8498752080e-03    1.0120000000e+05
    6.8598133512e-03    1.0120000000e+05
    6.8700001575e-03    1.0120000000e+05
    6.8799378350e-03    1.0120000000e+05
    6.8898755126e-03    1.0120000000e+05
    6.8998127244e-03    1.0120000000e+05
    6.9099972025e-03    1.0120000000e+05
    6.9199339487e-03    1.0120000000e+05
    6.9298706949e-03    1.0120000000e+05
    6.9398069754e-03    1.0120000000e+05
    6.9499933161e-03    1.0120000000e+05
    6.9599323906e-03    1.0120000000e+05
    6.9698733278e-03    1.0120000000e+05
    6.9798151962e-03    1.0120000000e+05
    6.9897556677e-03    1.0120000000e+05
    6.9999438711e-03    1.0120000000e+05
    7.0098820142e-03    1.0120000000e+05
    7.0198196918e-03    1.0120000000e+05
    7.0297569036e-03    1.0120000000e+05
    7.0399418473e-03    1.0120000000e+05
    7.0498827845e-03    1.0120000000e+05
    7.0598283783e-03    1.0120000000e+05
    7.0697735064e-03    1.0120000000e+05
    7.0799663663e-03    1.0120000000e+05
    7.0899096318e-03    1.0120000000e+05
    7.0998524316e-03    1.0120000000e+05
    7.1097947657e-03    1.0120000000e+05
    7.1199857630e-03    1.0120000000e+05
    7.1299304254e-03    1.0120000000e+05
    7.1398788132e-03    1.0120000000e+05
    7.1498262696e-03    1.0120000000e+05
    7.1597723290e-03    1.0120000000e+05
    7.1699665859e-03    1.0120000000e+05
    7.1799107827e-03    1.0120000000e+05
    7.1898577735e-03    1.0120000000e+05
    7.1998094209e-03    1.0120000000e+05
    7.2097606026e-03    1.0120000000e+05
    7.2199595161e-03    1.0120000000e+05
    7.2299088351e-03    1.0120000000e+05
    7.2398576885e-03    1.0120000000e+05
    7.2498093359e-03    1.0120000000e+05
    7.2597642429e-03    1.0120000000e+05
    7.2699664161e-03    1.0120000000e+05
    7.2799189948e-03    1.0120000000e+05
    7.2898706421e-03    1.0120000000e+05
    7.2998246178e-03    1.0120000000e+05
    7.3097809218e-03    1.0120000000e+05
    7.3199863546e-03    1.0120000000e+05
    7.3299417272e-03    1.0120000000e+05
    7.3398961686e-03    1.0120000000e+05
    7.3498520069e-03    1.0120000000e+05
    7.3598111048e-03    1.0120000000e+05
    7.3697688058e-03    1.0120000000e+05
    7.3799747042e-03    1.0120000000e+05
    7.3899310082e-03    1.0120000000e+05
    7.3998901062e-03    1.0120000000e+05
    7.4098496698e-03    1.0120000000e+05
    7.4198087677e-03    1.0120000000e+05
    7.4297669344e-03    1.0120000000e+05
    7.4399746954e-03    1.0120000000e+05
    7.4499351904e-03    1.0120000000e+05
    7.4598947540e-03    1.0120000000e+05
    7.4698538519e-03    1.0120000000e+05
    7.4798134156e-03    1.0120000000e+05
    7.4897734448e-03    1.0120000000e+05
    7.4999826029e-03    1.0120000000e+05
    7.5099421665e-03    1.0120000000e+05
    7.5199012645e-03    1.0120000000e+05
    7.5298612937e-03    1.0120000000e+05
    7.5398213230e-03    1.0120000000e+05
    7.5497804210e-03    1.0120000000e+05
    7.5599886477e-03    1.0120000000e+05
    7.5699486770e-03    1.0120000000e+05
    7.5799082406e-03    1.0120000000e+05
    7.5898673385e-03    1.0120000000e+05
    7.5998264365e-03    1.0120000000e+05
    7.6097860001e-03    1.0120000000e+05
    7.6199942268e-03    1.0120000000e+05
    7.6299528591e-03    1.0120000000e+05
    7.6399114914e-03    1.0120000000e+05
    7.6498701237e-03    1.0120000000e+05
    7.6598282903e-03    1.0120000000e+05
    7.6697864570e-03    1.0120000000e+05
    7.6799937524e-03    1.0120000000e+05
    7.6899514534e-03    1.0120000000e+05
    7.6999091543e-03    1.0120000000e+05
    7.7098663896e-03    1.0120000000e+05
    7.7198240906e-03    1.0120000000e+05
    7.7297813259e-03    1.0120000000e+05
    7.7399872243e-03    1.0120000000e+05
    7.7499439940e-03    1.0120000000e+05
    7.7599012293e-03    1.0120000000e+05
    7.7698593959e-03    1.0120000000e+05
    7.7798184939e-03    1.0120000000e+05
    7.7897775918e-03    1.0120000000e+05
    7.7999853529e-03    1.0120000000e+05
    7.8099430539e-03    1.0120000000e+05
    7.8199002892e-03    1.0120000000e+05
    7.8298579901e-03    1.0120000000e+05
    7.8398184851e-03    1.0120000000e+05
    7.8497799113e-03    1.0120000000e+05
    7.8599927947e-03    1.0120010156e+05
    7.8699560836e-03    1.1796013281e+05
    7.8799184412e-03    2.3071845312e+05
    7.8898807988e-03    2.2992367188e+05
    7.8998422250e-03    2.2922045312e+05
    7.9098045826e-03    2.2851412500e+05
    7.9197660089e-03    2.2781243750e+05
    7.9299760982e-03    2.2709800000e+05
    7.9399384558e-03    2.2640506250e+05
    7.9498989508e-03    2.2571623438e+05
    7.9598603770e-03    2.2503145312e+05
    7.9698218033e-03    2.2435056250e+05
    7.9797841609e-03    2.2367375000e+05
    7.9899951816e-03    2.2298418750e+05
    7.9999594018e-03    2.2231539062e+05
    8.0099236220e-03    2.2165037500e+05
    8.0198887736e-03    2.2098918750e+05
    8.0298529938e-03    2.2033187500e+05
    8.0398181453e-03    2.1967829688e+05
    8.0497851595e-03    2.1902845312e+05
    8.0597521737e-03    2.1838242188e+05
    8.0699715763e-03    2.1772382812e+05
    8.0799488351e-03    2.1708470312e+05
    8.0899307504e-03    2.1644895312e+05
    8.0999163911e-03    2.1581673438e+05
    8.1099038944e-03    2.1518800000e+05
    8.1198913977e-03    2.1456289062e+05
    8.1298779696e-03    2.1394142188e+05
    8.1398645416e-03    2.1332351562e+05
    8.1498501822e-03    2.1270918750e+05
    8.1598358229e-03    2.1209842188e+05
    8.1698214635e-03    2.1149110938e+05
    8.1798080355e-03    2.1088718750e+05
    8.1897955388e-03    2.1028651562e+05
    8.1997839734e-03    2.0968920312e+05
    8.2097705454e-03    2.0909554688e+05
    8.2197571173e-03    2.0850557812e+05
    8.2299932837e-03    2.0790432812e+05
    8.2399798557e-03    2.0732054688e+05
    8.2499654964e-03    2.0673962500e+05
    8.2599529997e-03    2.0616231250e+05
    8.2699386403e-03    2.0558917188e+05
    8.2799252123e-03    2.0501954688e+05
    8.2899108529e-03    2.0445229688e+05
    8.2998964936e-03    2.0388732812e+05
    8.3098821342e-03    2.0332568750e+05
    8.3198677748e-03    2.0276804688e+05
    8.3298524842e-03    2.0221393750e+05
    8.3398409188e-03    2.0166229688e+05
    8.3498284221e-03    2.0111320312e+05
    8.3598159254e-03    2.0056735938e+05
    8.3698043600e-03    2.0002504688e+05
    8.3797974512e-03    1.9948545312e+05
    8.3897942677e-03    1.9894804688e+05
    8.3997929469e-03    1.9841320312e+05
    8.4097944200e-03    1.9788151562e+05
    8.4198005497e-03    1.9735304688e+05
    8.4298159927e-03    1.9682698438e+05
    8.4398388863e-03    1.9630307812e+05
    8.4498636425e-03    1.9578173438e+05
    8.4598930553e-03    1.9526295312e+05
    8.4699308500e-03    1.9474689062e+05
    8.4799816832e-03    1.9423304688e+05
    8.4897838533e-03    1.9373454688e+05
    8.4998384118e-03    1.9322585938e+05
    8.5099041462e-03    1.9271939062e+05
    8.5199782625e-03    1.9221532812e+05
    8.5298074409e-03    1.9172618750e+05
    8.5398871452e-03    1.9122725000e+05
    8.5499705747e-03    1.9073079688e+05
    8.5598155856e-03    1.9024870312e+05
    8.5699167103e-03    1.8975668750e+05
    8.5797728971e-03    1.8927920312e+05
    8.5898758844e-03    1.8879232812e+05
    8.5999863222e-03    1.8830779688e+05
    8.6098620668e-03    1.8783695312e+05
    8.6199967191e-03    1.8735635938e+05
    8.6298808455e-03    1.8689012500e+05
    8.6397612467e-03    1.8642654688e+05
    8.6498996243e-03    1.8595332812e+05
    8.6598042399e-03    1.8549348438e+05
    8.6699668318e-03    1.8502414062e+05
    8.6798779666e-03    1.8456882812e+05
    8.6897807196e-03    1.8411639062e+05
    8.6999516934e-03    1.8365432812e+05
    8.7098795921e-03    1.8320554688e+05
    8.7198121473e-03    1.8275870312e+05
    8.7297512218e-03    1.8231373438e+05
    8.7399426848e-03    1.8185995312e+05
    8.7498836219e-03    1.8141989062e+05
    8.7598385289e-03    1.8098162500e+05
    8.7697962299e-03    1.8054531250e+05
    8.7797651067e-03    1.8011062500e+05
    8.7899910286e-03    1.7966704688e+05
    8.7999626994e-03    1.7923689062e+05
    8.8099390268e-03    1.7880885938e+05
    8.8199228048e-03    1.7838267188e+05
    8.8299177587e-03    1.7795817188e+05
    8.8399164379e-03    1.7753567188e+05
    8.8499132544e-03    1.7711542188e+05
    8.8599128649e-03    1.7669710938e+05
    8.8699180633e-03    1.7628070312e+05
    8.8799372315e-03    1.7586600000e+05
    8.8899629191e-03    1.7545329688e+05
    8.8999867439e-03    1.7504260938e+05
    8.9097525924e-03    1.7464435938e+05
    8.9197801426e-03    1.7423742188e+05
    8.9298188686e-03    1.7383225000e+05
    8.9398669079e-03    1.7342890625e+05
    8.9499177411e-03    1.7302751562e+05
    8.9599676430e-03    1.7262801562e+05
    8.9697614312e-03    1.7224065625e+05
    8.9798225090e-03    1.7184476562e+05
    8.9898919687e-03    1.7145059375e+05
    8.9999660850e-03    1.7105825000e+05
    9.0097850189e-03    1.7067773438e+05
    9.0198628604e-03    1.7028906250e+05
    9.0299434960e-03    1.6990225000e+05
    9.0397745371e-03    1.6952695312e+05
    9.0498700738e-03    1.6914343750e+05
    9.0599711984e-03    1.6876167188e+05
    9.0698162094e-03    1.6839143750e+05
    9.0799238533e-03    1.6801314062e+05
    9.0897763148e-03    1.6764621875e+05
    9.0998914093e-03    1.6727134375e+05
    9.1097559780e-03    1.6690757812e+05
    9.1198822483e-03    1.6653603125e+05
    9.1297486797e-03    1.6617584375e+05
    9.1398824006e-03    1.6580779688e+05
    9.1497618705e-03    1.6545067188e+05
    9.1599049047e-03    1.6508568750e+05
    9.1697918251e-03    1.6473165625e+05
    9.1799432412e-03    1.6436998438e+05
    9.1898376122e-03    1.6401932812e+05
    9.1999964789e-03    1.6366115625e+05
    9.2099029571e-03    1.6331353125e+05
    9.2198103666e-03    1.6296737500e+05
    9.2299804091e-03    1.6261367188e+05
    9.2398924753e-03    1.6227065625e+05
    9.2498101294e-03    1.6192917188e+05
    9.2599932104e-03    1.6158031250e+05
    9.2699211091e-03    1.6124200000e+05
    9.2798527330e-03    1.6090514062e+05
    9.2897852883e-03    1.6056982812e+05
    9.2999804765e-03    1.6022718750e+05
    9.3099232763e-03    1.5989462500e+05
    9.3198707327e-03    1.5956360938e+05
    9.3298219144e-03    1.5923410938e+05
    9.3397749588e-03    1.5890609375e+05
    9.3499943614e-03    1.5857078125e+05
    9.3599529937e-03    1.5824556250e+05
    9.3699134886e-03    1.5792193750e+05
    9.3798832968e-03    1.5759964062e+05
    9.3898549676e-03    1.5727873438e+05
    9.3998285010e-03    1.5695921875e+05
    9.4098076224e-03    1.5664106250e+05
    9.4197904691e-03    1.5632429688e+05
    9.4297789037e-03    1.5600887500e+05
    9.4397682697e-03    1.5569493750e+05
    9.4497641549e-03    1.5538225000e+05
    9.4597609714e-03    1.5507096875e+05
    9.4697596505e-03    1.5476114062e+05
    9.4797648489e-03    1.5445256250e+05
    9.4897719100e-03    1.5414534375e+05
    9.4997864217e-03    1.5383935938e+05
    9.5098018646e-03    1.5353473438e+05
    9.5198219642e-03    1.5323140625e+05
    9.5298448578e-03    1.5292937500e+05
    9.5398612320e-03    1.5262901562e+05
    9.5498887822e-03    1.5232979688e+05
    9.5599191263e-03    1.5203192188e+05
    9.5699504018e-03    1.5173529688e+05
    9.5799909905e-03    1.5143976562e+05
    9.5897708088e-03    1.5115318750e+05
    9.5998188481e-03    1.5086017188e+05
    9.6098612994e-03    1.5056875000e+05
    9.6199084073e-03    1.5027859375e+05
    9.6299648285e-03    1.4998943750e+05
    9.6397520974e-03    1.4970923438e+05
    9.6498150378e-03    1.4942242188e+05
    9.6598817036e-03    1.4913684375e+05
    9.6699511632e-03    1.4885245312e+05
    9.6797533333e-03    1.4857684375e+05
    9.6898227930e-03    1.4829512500e+05
    9.6999024972e-03    1.4801451562e+05
    9.7099775448e-03    1.4773532812e+05
    9.7197927535e-03    1.4746448438e+05
    9.7298827022e-03    1.4718729688e+05
    9.7399707884e-03    1.4691146875e+05
    9.7497990355e-03    1.4664400000e+05
    9.7598927096e-03    1.4637051562e+05
    9.7699956968e-03    1.4609804688e+05
    9.7798323259e-03    1.4583393750e+05
    9.7899334505e-03    1.4556396875e+05
    9.7997784615e-03    1.4530204688e+05
    9.8098842427e-03    1.4503431250e+05
    9.8199965432e-03    1.4476760938e+05
    9.8298499361e-03    1.4450893750e+05
    9.8399715498e-03    1.4424443750e+05
    9.8498305306e-03    1.4398792188e+05
    9.8599521443e-03    1.4372571875e+05
    9.8698167130e-03    1.4347132812e+05
    9.8799495026e-03    1.4321121875e+05
    9.8898122087e-03    1.4295918750e+05
    9.8999533802e-03    1.4270118750e+05
    9.9098263308e-03    1.4245112500e+05
    9.9199730903e-03    1.4219529688e+05
    9.9298497662e-03    1.4194731250e+05
    9.9399983883e-03    1.4169365625e+05
    9.9498871714e-03    1.4144759375e+05
    9.9597740918e-03    1.4120268750e+05
    9.9699338898e-03    1.4095214062e+05
    9.9798301235e-03    1.4070914062e+05
    9.9899889901e-03    1.4046078125e+05
    9.9998917431e-03    1.4021971875e+05
    1.0009789839e-02    1.3997984375e+05
    1.0019964539e-02    1.3973442188e+05
    1.0029870085e-02    1.3949656250e+05
    1.0039781220e-02    1.3925960938e+05
    1.0049968027e-02    1.3901707812e+05
    1.0059881024e-02    1.3878206250e+05
    1.0069797747e-02    1.3854795312e+05
    1.0079992004e-02    1.3830837500e+05
    1.0089914314e-02    1.3807631250e+05
    1.0099844076e-02    1.3784504688e+05
    1.0109770112e-02    1.3761482812e+05
    1.0119973682e-02    1.3737914062e+05
    1.0129907168e-02    1.3715064062e+05
    1.0139842518e-02    1.3692315625e+05
    1.0149789043e-02    1.3669642188e+05
    1.0159732774e-02    1.3647067188e+05
    1.0169948451e-02    1.3623978125e+05
    1.0179900564e-02    1.3601584375e+05
    1.0189848952e-02    1.3579300000e+05
    1.0199806653e-02    1.3557089062e+05
    1.0209755972e-02    1.3534987500e+05
    1.0219984688e-02    1.3512364062e+05
    1.0229950771e-02    1.3490417188e+05
    1.0239916854e-02    1.3468568750e+05
    1.0249891318e-02    1.3446792188e+05
    1.0259863921e-02    1.3425110938e+05
    1.0269837454e-02    1.3403523438e+05
    1.0279817507e-02    1.3382012500e+05
    1.0289791971e-02    1.3360604688e+05
    1.0299775749e-02    1.3339264062e+05
    1.0309757665e-02    1.3318017188e+05
    1.0319747031e-02    1.3296848438e+05
    1.0329744779e-02    1.3275753125e+05
    1.0339737870e-02    1.3254756250e+05
    1.0349738412e-02    1.3233832812e+05
    1.0359741747e-02    1.3212990625e+05
    1.0369744152e-02    1.3192235938e+05
    1.0379754007e-02    1.3171546875e+05
    1.0389758274e-02    1.3150959375e+05
    1.0399771854e-02    1.3130448438e+05
    1.0409784503e-02    1.3110028125e+05
    1.0419800878e-02    1.3089686719e+05
    1.0429828428e-02    1.3069402344e+05
    1.0439853184e-02    1.3049203125e+05
    1.0449884459e-02    1.3029075000e+05
    1.0459915735e-02    1.3009032031e+05
    1.0469943285e-02    1.2989087500e+05
    1.0479982942e-02    1.2969205469e+05
    1.0489745066e-02    1.2949949219e+05
    1.0499787517e-02    1.2930216406e+05
    1.0509838350e-02    1.2910546094e+05
    1.0519888252e-02    1.2890963281e+05
    1.0529947467e-02    1.2871447656e+05
    1.0539730079e-02    1.2852546094e+05
    1.0549789295e-02    1.2833188281e+05
    1.0559855029e-02    1.2813897656e+05
    1.0569915175e-02    1.2794703125e+05
    1.0579986498e-02    1.2775568750e+05
    1.0589781217e-02    1.2757032031e+05
    1.0599855334e-02    1.2738046094e+05
    1.0609938763e-02    1.2719121875e+05
    1.0619749315e-02    1.2700785156e+05
    1.0629844852e-02    1.2681992969e+05
    1.0639943182e-02    1.2663266406e+05
    1.0649769567e-02    1.2645122656e+05
    1.0659866966e-02    1.2626555469e+05
    1.0669959709e-02    1.2608072656e+05
    1.0679786094e-02    1.2590150781e+05
    1.0689884424e-02    1.2571802344e+05
    1.0699983686e-02    1.2553528125e+05
    1.0709815659e-02    1.2535810156e+05
    1.0719922371e-02    1.2517677344e+05
    1.0729757138e-02    1.2500103906e+05
    1.0739864781e-02    1.2482119531e+05
    1.0749967769e-02    1.2464211719e+05
    1.0759803466e-02    1.2446846875e+05
    1.0769913904e-02    1.2429064844e+05
    1.0779755190e-02    1.2411827344e+05
    1.0789875872e-02    1.2394172656e+05
    1.0799999349e-02    1.2376588281e+05
    1.0809851810e-02    1.2359544531e+05
    1.0819973424e-02    1.2342106250e+05
    1.0829822160e-02    1.2325206250e+05
    1.0839950293e-02    1.2307893750e+05
    1.0849804617e-02    1.2291116406e+05
    1.0859940201e-02    1.2273931250e+05
    1.0869795457e-02    1.2257285156e+05
    1.0879929177e-02    1.2240234375e+05
    1.0889803991e-02    1.2223685156e+05
    1.0899948888e-02    1.2206758594e+05
    1.0909832083e-02    1.2190341406e+05
    1.0919994675e-02    1.2173521094e+05
    1.0929886252e-02    1.2157203906e+05
    1.0939782485e-02    1.2140947656e+05
    1.0949951597e-02    1.2124314844e+05
    1.0959845036e-02    1.2108200781e+05
    1.0969737545e-02    1.2092146094e+05
    1.0979903862e-02    1.2075710156e+05
    1.0989794508e-02    1.2059787500e+05
    1.0999958962e-02    1.2043491406e+05
    1.1009851471e-02    1.2027691406e+05
    1.1019748636e-02    1.2011947656e+05
    1.1029920541e-02    1.1995832031e+05
    1.1039816774e-02    1.1980214844e+05
    1.1049986817e-02    1.1964227344e+05
    1.1059880257e-02    1.1948733594e+05
    1.1069773696e-02    1.1933300000e+05
    1.1079940014e-02    1.1917500781e+05
    1.1089834385e-02    1.1902185156e+05
    1.1099728756e-02    1.1886928906e+05
    1.1109898798e-02    1.1871310156e+05
    1.1119792238e-02    1.1856177344e+05
    1.1129960418e-02    1.1840691406e+05
    1.1139852926e-02    1.1825688281e+05
    1.1149744503e-02    1.1810746094e+05
    1.1159910820e-02    1.1795446875e+05
    1.1169802397e-02    1.1780618750e+05
    1.1179970577e-02    1.1765435156e+05
    1.1189864948e-02    1.1750715625e+05
    1.1199757457e-02    1.1736041406e+05
    1.1209923774e-02    1.1721002344e+05
    1.1219815351e-02    1.1706418750e+05
    1.1229981668e-02    1.1691500781e+05
    1.1239873245e-02    1.1677066406e+05
    1.1249767616e-02    1.1662713281e+05
    1.1259936728e-02    1.1648035156e+05
    1.1269832030e-02    1.1633818750e+05
    1.1279728264e-02    1.1619653906e+05
    1.1289897375e-02    1.1605139844e+05
    1.1299794540e-02    1.1591036719e+05
    1.1309970170e-02    1.1576546094e+05
    1.1319871061e-02    1.1562452344e+05
    1.1329776607e-02    1.1548368750e+05
    1.1339956895e-02    1.1533941406e+05
    1.1349861510e-02    1.1519987500e+05
    1.1359768920e-02    1.1506141406e+05
    1.1369956657e-02    1.1492036719e+05
    1.1379870586e-02    1.1478452344e+05
    1.1389785446e-02    1.1464991406e+05
    1.1399985291e-02    1.1451240625e+05
    1.1409914121e-02    1.1437891406e+05
    1.1419844814e-02    1.1424516406e+05
    1.1429775506e-02    1.1411075000e+05
    1.1439980008e-02    1.1397168750e+05
    1.1449906975e-02    1.1383559375e+05
    1.1459832080e-02    1.1369912500e+05
    1.1469757184e-02    1.1356285156e+05
    1.1479957029e-02    1.1342371875e+05
    1.1489881203e-02    1.1328983594e+05
    1.1499806307e-02    1.1315793750e+05
    1.1509732343e-02    1.1302830469e+05
    1.1519935913e-02    1.1289746094e+05
    1.1529864743e-02    1.1277225000e+05
    1.1539793573e-02    1.1264853906e+05
    1.1549997143e-02    1.1252196875e+05
    1.1559923179e-02    1.1239821094e+05
    1.1569849215e-02    1.1227283594e+05
    1.1579774320e-02    1.1214533594e+05
    1.1589974165e-02    1.1201225781e+05
    1.1599898338e-02    1.1188146094e+05
    1.1609821580e-02    1.1175013281e+05
    1.1619744822e-02    1.1161907031e+05
    1.1629942805e-02    1.1148535156e+05
    1.1639865115e-02    1.1135678125e+05
    1.1649786495e-02    1.1123006250e+05
    1.1659983546e-02    1.1110196094e+05
    1.1669903062e-02    1.1097944531e+05
    1.1679823510e-02    1.1085903125e+05
    1.1689742096e-02    1.1074061719e+05
    1.1699936353e-02    1.1062078906e+05
    1.1709854938e-02    1.1050563281e+05
    1.1719772592e-02    1.1039122656e+05
    1.1729964986e-02    1.1027360156e+05
    1.1739881709e-02    1.1015832031e+05
    1.1749797501e-02    1.1004168750e+05
    1.1759988964e-02    1.0992021094e+05
    1.1769904755e-02    1.0980055469e+05
    1.1779819615e-02    1.0967991406e+05
    1.1789735407e-02    1.0955886719e+05
    1.1799925007e-02    1.0943455469e+05
    1.1809838936e-02    1.0931406250e+05
    1.1819752865e-02    1.0919424219e+05
    1.1829943396e-02    1.0907187500e+05
    1.1839859188e-02    1.0895360156e+05
    1.1849774979e-02    1.0883618750e+05
    1.1859967373e-02    1.0871646094e+05
    1.1869885959e-02    1.0860093750e+05
    1.1879806407e-02    1.0848640625e+05
    1.1889730580e-02    1.0837286719e+05
    1.1899935082e-02    1.0825722656e+05
    1.1909865774e-02    1.0814578125e+05
    1.1919818819e-02    1.0803510156e+05
    1.1929801665e-02    1.0792497656e+05
    1.1939815246e-02    1.0781527344e+05
    1.1949855834e-02    1.0770578906e+05
    1.1959924363e-02    1.0759625781e+05
    1.1969737709e-02    1.0748936719e+05
    1.1979858391e-02    1.0737881250e+05
    1.1989722028e-02    1.0727077344e+05
    1.1999891140e-02    1.0715927344e+05
    1.2009797618e-02    1.0705069531e+05
    1.2019728310e-02    1.0694208594e+05
    1.2029967271e-02    1.0683050000e+05
    1.2039949186e-02    1.0672228906e+05
    1.2049964629e-02    1.0661442969e+05
    1.2059732340e-02    1.0650993750e+05
    1.2069825083e-02    1.0640260156e+05
    1.2079956941e-02    1.0629542969e+05
    1.2089832686e-02    1.0619134375e+05
    1.2099736370e-02    1.0608728906e+05
    1.2109956704e-02    1.0598018750e+05
    1.2119899504e-02    1.0587618750e+05
    1.2129851617e-02    1.0577225781e+05
    1.2139811181e-02    1.0566847656e+05
    1.2149775401e-02    1.0556492969e+05
    1.2159755453e-02    1.0546152344e+05
    1.2169759721e-02    1.0535816406e+05
    1.2179795653e-02    1.0525481250e+05
    1.2189865112e-02    1.0515143750e+05
    1.2199967168e-02    1.0504809375e+05
    1.2209792621e-02    1.0494794531e+05
    1.2219926342e-02    1.0484503125e+05
    1.2229767628e-02    1.0474540625e+05
    1.2239908800e-02    1.0464305469e+05
    1.2249753810e-02    1.0454402344e+05
    1.2259908020e-02    1.0444227344e+05
    1.2269783765e-02    1.0434378906e+05
    1.2279985473e-02    1.0424250781e+05
    1.2289913371e-02    1.0414434375e+05
    1.2299867347e-02    1.0404633594e+05
    1.2309839018e-02    1.0394850000e+05
    1.2319823727e-02    1.0385088281e+05
    1.2329824269e-02    1.0375346094e+05
    1.2339860201e-02    1.0365608594e+05
    1.2349975295e-02    1.0355835156e+05
    1.2359905988e-02    1.0346277344e+05
    1.2369683944e-02    1.0336900781e+05
    1.2379964814e-02    1.0327082031e+05
    1.2389787473e-02    1.0317739844e+05
    1.2399791740e-02    1.0308262500e+05
    1.2409976684e-02    1.0298653125e+05
    1.2419993058e-02    1.0289246094e+05
    1.2429818511e-02    1.0280058594e+05
    1.2439794838e-02    1.0270767969e+05
    1.2449917383e-02    1.0261375781e+05
    1.2459816411e-02    1.0252227344e+05
    1.2469847687e-02    1.0242988281e+05
    1.2479632162e-02    1.0234008594e+05
    1.2489919551e-02    1.0224600781e+05
    1.2499948032e-02    1.0215464844e+05
    1.2509703636e-02    1.0206608594e+05
    1.2519964017e-02    1.0197321094e+05
    1.2529940344e-02    1.0188312500e+05
    1.2539619580e-02    1.0179594531e+05
    1.2549808249e-02    1.0170447656e+05
    1.2559689581e-02    1.0161614844e+05
    1.2569670565e-02    1.0152737500e+05
    1.2579749338e-02    1.0143810156e+05
    1.2589923106e-02    1.0134827344e+05
    1.2599763460e-02    1.0126162500e+05
    1.2609685771e-02    1.0117463281e+05
    1.2619690970e-02    1.0108741406e+05
    1.2629779056e-02    1.0099991406e+05
    1.2639953755e-02    1.0091202344e+05
    1.2649759650e-02    1.0082749219e+05
    1.2659637257e-02    1.0074252344e+05
    1.2669580057e-02    1.0065721094e+05
    1.2679575011e-02    1.0057167969e+05
    1.2689609081e-02    1.0048600781e+05
    1.2699677609e-02    1.0040021094e+05
    1.2709780596e-02    1.0031422656e+05
    1.2719916180e-02    1.0022807031e+05
    1.2729625218e-02    1.0014550781e+05
    1.2739830650e-02    1.0005878906e+05
    1.2749608606e-02    9.9975773438e+04
    1.2759904377e-02    9.9888625000e+04
    1.2769759633e-02    9.9805351562e+04
    1.2779655866e-02    9.9721976562e+04
    1.2789602391e-02    9.9638476562e+04
    1.2799574062e-02    9.9555101562e+04
    1.2809590437e-02    9.9471835938e+04
    1.2819658034e-02    9.9388710938e+04
    1.2829733081e-02    9.9306226562e+04
    1.2839835137e-02    9.9224023438e+04
    1.2849533930e-02    9.9146335938e+04
    1.2859717943e-02    9.9065523438e+04
    1.2869951315e-02    9.8985312500e+04
    1.2879746035e-02    9.8909250000e+04
    1.2889528647e-02    9.8833757812e+04
    1.2899897993e-02    9.8754289062e+04
    1.2909751385e-02    9.8678867188e+04
    1.2919664383e-02    9.8602742188e+04
    1.2929615565e-02    9.8526062500e+04
    1.2939580716e-02    9.8448539062e+04
    1.2949571945e-02    9.8369820312e+04
    1.2959651649e-02    9.8290187500e+04
    1.2969714589e-02    9.8210148438e+04
    1.2979761697e-02    9.8130125000e+04
    1.2989880517e-02    9.8049781250e+04
    1.2999552302e-02    9.7973585938e+04
    1.3009750284e-02    9.7893523438e+04
    1.3019989245e-02    9.7814500000e+04
    1.3029717840e-02    9.7739851562e+04
    1.3039986603e-02    9.7661882812e+04
    1.3049781322e-02    9.7588757812e+04
    1.3059593737e-02    9.7515664062e+04
    1.3069998473e-02    9.7438929688e+04
    1.3079932891e-02    9.7366429688e+04
    1.3089812361e-02    9.7293773438e+04
    1.3099741191e-02    9.7221656250e+04
    1.3109678403e-02    9.7149625000e+04
    1.3119659387e-02    9.7077710938e+04
    1.3129651546e-02    9.7005695312e+04
    1.3139647432e-02    9.6933585938e+04
    1.3149726205e-02    9.6861320312e+04
    1.3159777038e-02    9.6788445312e+04
    1.3169822283e-02    9.6715320312e+04
    1.3179909438e-02    9.6642312500e+04
    1.3189513236e-02    9.6571898438e+04
    1.3199646957e-02    9.6497781250e+04
    1.3209807687e-02    9.6423375000e+04
    1.3219474815e-02    9.6352664062e+04
    1.3229669072e-02    9.6278710938e+04
    1.3239914551e-02    9.6205281250e+04
    1.3249615207e-02    9.6136531250e+04
    1.3259892352e-02    9.6065062500e+04
    1.3269645162e-02    9.5998242188e+04
    1.3279929757e-02    9.5928851562e+04
    1.3289735653e-02    9.5863414062e+04
    1.3299524784e-02    9.5798492188e+04
    1.3309833594e-02    9.5730429688e+04
    1.3319559395e-02    9.5665164062e+04
    1.3329747133e-02    9.5596468750e+04
    1.3339767233e-02    9.5527625000e+04
    1.3349538669e-02    9.5459585938e+04
    1.3359568082e-02    9.5389281250e+04
    1.3369778171e-02    9.5317632812e+04
    1.3379666023e-02    9.5248585938e+04
    1.3389694504e-02    9.5179273438e+04
    1.3399826363e-02    9.5110257812e+04
    1.3409609906e-02    9.5044835938e+04
    1.3419859111e-02    9.4977570312e+04
    1.3429718092e-02    9.4913914062e+04
    1.3439939357e-02    9.4848718750e+04
    1.3449727558e-02    9.4786789062e+04
    1.3459767215e-02    9.4723460938e+04
    1.3469968922e-02    9.4658914062e+04
    1.3479931280e-02    9.4595375000e+04
    1.3489893638e-02    9.4531164062e+04
    1.3499744236e-02    9.4467007812e+04
    1.3509850018e-02    9.4400562500e+04
    1.3519942760e-02    9.4333789062e+04
    1.3529893942e-02    9.4267898438e+04
    1.3539957814e-02    9.4201554688e+04
    1.3549881987e-02    9.4136750000e+04
    1.3559899293e-02    9.4072757812e+04
    1.3569891453e-02    9.4010085938e+04
    1.3579873368e-02    9.3948742188e+04
    1.3589861803e-02    9.3888367188e+04
    1.3599893078e-02    9.3828406250e+04
    1.3609920628e-02    9.3768781250e+04
    1.3619952835e-02    9.3709101562e+04
    1.3629906811e-02    9.3649375000e+04
    1.3639951125e-02    9.3588210938e+04
    1.3649860397e-02    9.3526750000e+04
    1.3659805991e-02    9.3464187500e+04
    1.3669976965e-02    9.3399695312e+04
    1.3679926284e-02    9.3336742188e+04
    1.3689818792e-02    9.3274851562e+04
    1.3699825853e-02    9.3213414062e+04
    1.3709947467e-02    9.3152773438e+04
    1.3719932176e-02    9.3094500000e+04
    1.3729992323e-02    9.3036976562e+04
    1.3739884831e-02    9.2981164062e+04
    1.3749849983e-02    9.2925148438e+04
    1.3759848662e-02    9.2868554688e+04
    1.3769903220e-02    9.2810710938e+04
    1.3779984787e-02    9.2751437500e+04
    1.3789900579e-02    9.2692117188e+04
    1.3799827546e-02    9.2632054688e+04
    1.3809809461e-02    9.2571585938e+04
    1.3819807209e-02    9.2511523438e+04
    1.3829840347e-02    9.2452289062e+04
    1.3839903288e-02    9.2394312500e+04
    1.3849977404e-02    9.2337820312e+04
    1.3859864324e-02    9.2283648438e+04
    1.3869986869e-02    9.2229101562e+04
    1.3879927807e-02    9.2175757812e+04
    1.3889855705e-02    9.2122023438e+04
    1.3899846934e-02    9.2067007812e+04
    1.3909817673e-02    9.2011007812e+04
    1.3919836842e-02    9.1953718750e+04
    1.3929863460e-02    9.1895687500e+04
    1.3939918019e-02    9.1837382812e+04
    1.3949991204e-02    9.1779554688e+04
    1.3959862292e-02    9.1724085938e+04
    1.3969984837e-02    9.1668773438e+04
    1.3979882002e-02    9.1616164062e+04
    1.3989816420e-02    9.1564523438e+04
    1.3999993913e-02    9.1512257812e+04
    1.4009949751e-02    9.1461101562e+04
    1.4019931667e-02    9.1409101562e+04
    1.4029929414e-02    9.1355804688e+04
    1.4039932750e-02    9.1301179688e+04
    1.4049964026e-02    9.1245476562e+04
    1.4059773646e-02    9.1190781250e+04
    1.4069821686e-02    9.1135273438e+04
    1.4079895802e-02    9.1080804688e+04
    1.4089990407e-02    9.1027789062e+04
    1.4099842869e-02    9.0977585938e+04
    1.4109955169e-02    9.0927281250e+04
    1.4119853266e-02    9.0878593750e+04
    1.4129987918e-02    9.0828601562e+04
    1.4139892533e-02    9.0778937500e+04
    1.4149827883e-02    9.0727898438e+04
    1.4159759507e-02    9.0675656250e+04
    1.4169937931e-02    9.0621343750e+04
    1.4179904945e-02    9.0568125000e+04
    1.4189877547e-02    9.0515585938e+04
    1.4199841768e-02    9.0464343750e+04
    1.4209836721e-02    9.0414476562e+04
    1.4219846576e-02    9.0365960938e+04
    1.4229846187e-02    9.0318445312e+04
    1.4239862561e-02    9.0271101562e+04
    1.4249908738e-02    9.0223117188e+04
    1.4259939082e-02    9.0174156250e+04
    1.4269981533e-02    9.0123945312e+04
    1.4279806986e-02    9.0073898438e+04
    1.4289868064e-02    9.0022289062e+04
    1.4299930073e-02    8.9971085938e+04
    1.4309780672e-02    8.9922023438e+04
    1.4319880866e-02    8.9873179688e+04
    1.4329972677e-02    8.9825835938e+04
    1.4339843765e-02    8.9780523438e+04
    1.4349977486e-02    8.9734343750e+04
    1.4359856024e-02    8.9688976562e+04
    1.4369995333e-02    8.9641500000e+04
    1.4379904605e-02    8.9593968750e+04
    1.4389812015e-02    8.9545539062e+04
    1.4399976470e-02    8.9495539062e+04
    1.4409906231e-02    8.9447125000e+04
    1.4419843443e-02    8.9399625000e+04
    1.4429783449e-02    8.9353414062e+04
    1.4439987950e-02    8.9307351562e+04
    1.4449953102e-02    8.9263320312e+04
    1.4459914528e-02    8.9219554688e+04
    1.4469885267e-02    8.9175226562e+04
    1.4479873702e-02    8.9129875000e+04
    1.4489865862e-02    8.9083523438e+04
    1.4499859884e-02    8.9036507812e+04
    1.4509865083e-02    8.8989351562e+04
    1.4519879594e-02    8.8942726562e+04
    1.4529897831e-02    8.8897164062e+04
    1.4539926313e-02    8.8852843750e+04
    1.4549960382e-02    8.8809539062e+04
    1.4559995383e-02    8.8766750000e+04
    1.4569793828e-02    8.8724898438e+04
    1.4579848386e-02    8.8681335938e+04
    1.4589908533e-02    8.8636898438e+04
    1.4599972405e-02    8.8591648438e+04
    1.4609792270e-02    8.8547164062e+04
    1.4619876631e-02    8.8501789062e+04
    1.4629959129e-02    8.8457289062e+04
    1.4639794827e-02    8.8414992188e+04
    1.4649893157e-02    8.8372562500e+04
    1.4659995213e-02    8.8330742188e+04
    1.4669853263e-02    8.8290023438e+04
    1.4679965563e-02    8.8247867188e+04
    1.4689829201e-02    8.8206031250e+04
    1.4699957334e-02    8.8162398438e+04
    1.4709834941e-02    8.8119500000e+04
    1.4719972387e-02    8.8075601562e+04
    1.4729856513e-02    8.8033429688e+04
    1.4739748091e-02    8.7992187500e+04
    1.4749903232e-02    8.7950882812e+04
    1.4759804122e-02    8.7911289062e+04
    1.4769963920e-02    8.7870742188e+04
    1.4779871330e-02    8.7830750000e+04
    1.4789785258e-02    8.7790085938e+04
    1.4799963683e-02    8.7747820312e+04
    1.4809885062e-02    8.7706460938e+04
    1.4819816686e-02    8.7665210938e+04
    1.4829750173e-02    8.7624523438e+04
    1.4839943498e-02    8.7583664062e+04
    1.4849887230e-02    8.7544664062e+04
    1.4859825373e-02    8.7506132812e+04
    1.4869775623e-02    8.7467476562e+04
    1.4879983850e-02    8.7427429688e+04
    1.4889942482e-02    8.7387898438e+04
    1.4899905771e-02    8.7347992188e+04
    1.4909866266e-02    8.7308062500e+04
    1.4919835143e-02    8.7268406250e+04
    1.4929804020e-02    8.7229398438e+04
    1.4939775690e-02    8.7191125000e+04
    1.4949750155e-02    8.7153367188e+04
    1.4959977940e-02    8.7114820312e+04
    1.4969959855e-02    8.7077109375e+04
    1.4979946427e-02    8.7039140625e+04
    1.4989935793e-02    8.7000835938e+04
    1.4999929816e-02    8.6962296875e+04
    1.5009923838e-02    8.6923859375e+04
    1.5019916929e-02    8.6885867188e+04
    1.5029910021e-02    8.6848460938e+04
    1.5039902180e-02    8.6811515625e+04
    1.5049894340e-02    8.6774820312e+04
    1.5059886500e-02    8.6738164062e+04
    1.5069877729e-02    8.6701414062e+04
    1.5079871751e-02    8.6664445312e+04
    1.5089866705e-02    8.6627234375e+04
    1.5099862590e-02    8.6590000000e+04
    1.5109860338e-02    8.6553085938e+04
    1.5119859017e-02    8.6516687500e+04
    1.5129857697e-02    8.6480789062e+04
    1.5139855444e-02    8.6445226562e+04
    1.5149854124e-02    8.6409828125e+04
    1.5159851871e-02    8.6374390625e+04
    1.5169850551e-02    8.6338757812e+04
    1.5179848298e-02    8.6302953125e+04
    1.5189846046e-02    8.6267210938e+04
    1.5199844725e-02    8.6231796875e+04
    1.5209843405e-02    8.6196789062e+04
    1.5219843015e-02    8.6162078125e+04
    1.5229842626e-02    8.6127570312e+04
    1.5239844099e-02    8.6093179688e+04
    1.5249844640e-02    8.6058820312e+04
    1.5259846114e-02    8.6024375000e+04
    1.5269847587e-02    8.5989882812e+04
    1.5279849060e-02    8.5955445312e+04
    1.5289851464e-02    8.5921218750e+04
    1.5299855731e-02    8.5887234375e+04
    1.5309859067e-02    8.5853523438e+04
    1.5319864266e-02    8.5820046875e+04
    1.5329869464e-02    8.5786757812e+04
    1.5339875594e-02    8.5753507812e+04
    1.5349882655e-02    8.5720156250e+04
    1.5359889716e-02    8.5686757812e+04
    1.5369896777e-02    8.5653531250e+04
    1.5379904769e-02    8.5620593750e+04
    1.5389913693e-02    8.5587898438e+04
    1.5399922617e-02    8.5555335938e+04
    1.5409931540e-02    8.5522890625e+04
    1.5419940464e-02    8.5490546875e+04
    1.5429950319e-02    8.5458304688e+04
    1.5439959243e-02    8.5426164062e+04
    1.5449969098e-02    8.5394085938e+04
    1.5459978953e-02    8.5362093750e+04
    1.5469987877e-02    8.5330218750e+04
    1.5479997732e-02    8.5298492188e+04
    1.5489750542e-02    8.5267773438e+04
    1.5499761328e-02    8.5236484375e+04
    1.5509773046e-02    8.5205343750e+04
    1.5519787557e-02    8.5174187500e+04
    1.5529805794e-02    8.5142960938e+04
    1.5539827757e-02    8.5111812500e+04
    1.5549852513e-02    8.5080929688e+04
    1.5559876338e-02    8.5050289062e+04
    1.5569898300e-02    8.5019773438e+04
    1.5579919331e-02    8.4989273438e+04
    1.5589940362e-02    8.4958843750e+04
    1.5599960461e-02    8.4928585938e+04
    1.5609980561e-02    8.4898523438e+04
    1.5619746409e-02    8.4869328125e+04
    1.5629772097e-02    8.4839375000e+04
    1.5639796853e-02    8.4809523438e+04
    1.5649821609e-02    8.4779828125e+04
    1.5659846365e-02    8.4750304688e+04
    1.5669871122e-02    8.4720921875e+04
    1.5679894015e-02    8.4691632812e+04
    1.5689920634e-02    8.4662398438e+04
    1.5699947253e-02    8.4633203125e+04
    1.5709975734e-02    8.4604125000e+04
    1.5719745308e-02    8.4575976562e+04
    1.5729771927e-02    8.4547226562e+04
    1.5739798546e-02    8.4518539062e+04
    1.5749825165e-02    8.4489898438e+04
    1.5759851784e-02    8.4461414062e+04
    1.5769878402e-02    8.4433117188e+04
    1.5779905021e-02    8.4404914062e+04
    1.5789933503e-02    8.4376710938e+04
    1.5799960122e-02    8.4348617188e+04
    1.5809988603e-02    8.4320773438e+04
    1.5819758177e-02    8.4293851562e+04
    1.5829786658e-02    8.4266304688e+04
    1.5839813277e-02    8.4238796875e+04
    1.5849839896e-02    8.4211390625e+04
    1.5859868377e-02    8.4184156250e+04
    1.5869896859e-02    8.4157078125e+04
    1.5879925340e-02    8.4130101562e+04
    1.5889951959e-02    8.4103218750e+04
    1.5899980441e-02    8.4076445312e+04
    1.5909751877e-02    8.4050476562e+04
    1.5919778496e-02    8.4023890625e+04
    1.5929806978e-02    8.3997359375e+04
    1.5939835459e-02    8.3970929688e+04
    1.5949863940e-02    8.3944578125e+04
    1.5959892422e-02    8.3918304688e+04
    1.5969920903e-02    8.3892117188e+04
    1.5979949385e-02    8.3866054688e+04
    1.5989977866e-02    8.3840148438e+04
    1.5999749303e-02    8.3815031250e+04
    1.6009777784e-02    8.3789335938e+04
    1.6019808128e-02    8.3763718750e+04
    1.6029836610e-02    8.3738265625e+04
    1.6039865091e-02    8.3712968750e+04
    1.6049893573e-02    8.3687757812e+04
    1.6059922054e-02    8.3662640625e+04
    1.6069952399e-02    8.3637679688e+04
    1.6079980880e-02    8.3612843750e+04
    1.6089752316e-02    8.3588703125e+04
    1.6099780798e-02    8.3563992188e+04
    1.6109809279e-02    8.3539437500e+04
    1.6119839624e-02    8.3515015625e+04
    1.6129868105e-02    8.3490679688e+04
    1.6139896587e-02    8.3466406250e+04
    1.6149926931e-02    8.3442226562e+04
    1.6159955412e-02    8.3418179688e+04
    1.6169983894e-02    8.3394234375e+04
    1.6179757193e-02    8.3370960938e+04
    1.6189785674e-02    8.3347140625e+04
    1.6199816018e-02    8.3323453125e+04
    1.6209844500e-02    8.3299898438e+04
    1.6219874844e-02    8.3276437500e+04
    1.6229903325e-02    8.3253039062e+04
    1.6239933670e-02    8.3229773438e+04
    1.6249962151e-02    8.3206656250e+04
    1.6259992495e-02    8.3183640625e+04
    1.6269765794e-02    8.3161296875e+04
    1.6279794276e-02    8.3138476562e+04
    1.6289824620e-02    8.3115804688e+04
    1.6299854964e-02    8.3093257812e+04
    1.6309883446e-02    8.3070757812e+04
    1.6319913790e-02    8.3048304688e+04
    1.6329944134e-02    8.3025976562e+04
    1.6339972615e-02    8.3003796875e+04
    1.6349745914e-02    8.2982265625e+04
    1.6359776258e-02    8.2960187500e+04
    1.6369806603e-02    8.2938179688e+04
    1.6379836947e-02    8.2916320312e+04
    1.6389865428e-02    8.2894601562e+04
    1.6399895772e-02    8.2872992188e+04
    1.6409926116e-02    8.2851468750e+04
    1.6419956461e-02    8.2830046875e+04
    1.6429986805e-02    8.2808734375e+04
    1.6439760104e-02    8.2788039062e+04
    1.6449790448e-02    8.2766906250e+04
    1.6459822655e-02    8.2745914062e+04
    1.6469852999e-02    8.2725015625e+04
    1.6479883343e-02    8.2704148438e+04
    1.6489913687e-02    8.2683335938e+04
    1.6499944031e-02    8.2662671875e+04
    1.6509976238e-02    8.2642156250e+04
    1.6519749537e-02    8.2622257812e+04
    1.6529779881e-02    8.2601914062e+04
    1.6539812088e-02    8.2581648438e+04
    1.6549842432e-02    8.2561468750e+04
    1.6559874639e-02    8.2541398438e+04
    1.6569906846e-02    8.2521453125e+04
    1.6579937190e-02    8.2501601562e+04
    1.6589969397e-02    8.2481835938e+04
    1.6599744558e-02    8.2462679688e+04
    1.6609776765e-02    8.2443117188e+04
    1.6619808972e-02    8.2423625000e+04
    1.6629841179e-02    8.2404203125e+04
    1.6639871523e-02    8.2384859375e+04
    1.6649903730e-02    8.2365617188e+04
    1.6659935936e-02    8.2346507812e+04
    1.6669970006e-02    8.2327546875e+04
    1.6679745167e-02    8.2309148438e+04
    1.6689779237e-02    8.2290312500e+04
    1.6699811444e-02    8.2271539062e+04
    1.6709845513e-02    8.2252867188e+04
    1.6719879583e-02    8.2234335938e+04
    1.6729911789e-02    8.2215921875e+04
    1.6739945859e-02    8.2197554688e+04
    1.6749979928e-02    8.2179218750e+04
    1.6759755090e-02    8.2161468750e+04
    1.6769789159e-02    8.2143414062e+04
    1.6779823229e-02    8.2125445312e+04
    1.6789857298e-02    8.2107515625e+04
    1.6799893230e-02    8.2089679688e+04
    1.6809927300e-02    8.2071984375e+04
    1.6819961369e-02    8.2054390625e+04
    1.6829995438e-02    8.2036851562e+04
    1.6839774325e-02    8.2019828125e+04
    1.6849808395e-02    8.2002468750e+04
    1.6859844327e-02    8.1985242188e+04
    1.6869878396e-02    8.1968101562e+04
    1.6879914328e-02    8.1950984375e+04
    1.6889950261e-02    8.1933906250e+04
    1.6899986193e-02    8.1916968750e+04
    1.6909765080e-02    8.1900617188e+04
    1.6919801012e-02    8.1883921875e+04
    1.6929836944e-02    8.1867273438e+04
    1.6939872876e-02    8.1850718750e+04
    1.6949908808e-02    8.1834281250e+04
    1.6959946603e-02    8.1817945312e+04
    1.6969982535e-02    8.1801687500e+04
    1.6979763284e-02    8.1785929688e+04
    1.6989799216e-02    8.1769875000e+04
    1.6999837011e-02    8.1753929688e+04
    1.7009874806e-02    8.1738031250e+04
    1.7019912601e-02    8.1722171875e+04
    1.7029950395e-02    8.1706429688e+04
    1.7039988190e-02    8.1690804688e+04
    1.7049768940e-02    8.1675679688e+04
    1.7059806734e-02    8.1660234375e+04
    1.7069844529e-02    8.1644859375e+04
    1.7079884186e-02    8.1629570312e+04
    1.7089923844e-02    8.1614359375e+04
    1.7099961638e-02    8.1599242188e+04
    1.7109744251e-02    8.1584593750e+04
    1.7119782045e-02    8.1569648438e+04
    1.7129821703e-02    8.1554773438e+04
    1.7139861360e-02    8.1539968750e+04
    1.7149901018e-02    8.1525265625e+04
    1.7159940675e-02    8.1510703125e+04
    1.7169980332e-02    8.1496250000e+04
    1.7179762945e-02    8.1482187500e+04
    1.7189802602e-02    8.1467812500e+04
    1.7199844122e-02    8.1453554688e+04
    1.7209883779e-02    8.1439437500e+04
    1.7219925299e-02    8.1425414062e+04
    1.7229964957e-02    8.1411421875e+04
    1.7239747569e-02    8.1397851562e+04
    1.7249789089e-02    8.1384054688e+04
    1.7259830609e-02    8.1370382812e+04
    1.7269872129e-02    8.1356773438e+04
    1.7279913649e-02    8.1343179688e+04
    1.7289953306e-02    8.1329695312e+04
    1.7299994826e-02    8.1316359375e+04
    1.7309779301e-02    8.1303429688e+04
    1.7319820821e-02    8.1290179688e+04
    1.7329864204e-02    8.1277039062e+04
    1.7339905724e-02    8.1264039062e+04
    1.7349947244e-02    8.1251125000e+04
    1.7359990627e-02    8.1238250000e+04
    1.7369775102e-02    8.1225750000e+04
    1.7379816622e-02    8.1213046875e+04
    1.7389860004e-02    8.1200476562e+04
    1.7399903387e-02    8.1187968750e+04
    1.7409944907e-02    8.1175476562e+04
    1.7419988289e-02    8.1163078125e+04
    1.7429774627e-02    8.1151148438e+04
    1.7439818010e-02    8.1139007812e+04
    1.7449861392e-02    8.1126898438e+04
    1.7459904775e-02    8.1114859375e+04
    1.7469948158e-02    8.1102945312e+04
    1.7479991540e-02    8.1091140625e+04
    1.7489777878e-02    8.1079679688e+04
    1.7499821261e-02    8.1067945312e+04
    1.7509864643e-02    8.1056296875e+04
    1.7519909889e-02    8.1044773438e+04
    1.7529953271e-02    8.1033351562e+04
    1.7539998516e-02    8.1022007812e+04
    1.7549784854e-02    8.1011039062e+04
    1.7559830099e-02    8.0999875000e+04
    1.7569873482e-02    8.0988765625e+04
    1.7579918727e-02    8.0977710938e+04
    1.7589963973e-02    8.0966765625e+04
    1.7599750310e-02    8.0956242188e+04
    1.7609795555e-02    8.0945539062e+04
    1.7619840801e-02    8.0934859375e+04
    1.7629886046e-02    8.0924210938e+04
    1.7639931291e-02    8.0913695312e+04
    1.7649978399e-02    8.0903320312e+04
    1.7659766600e-02    8.0893257812e+04
    1.7669811845e-02    8.0882937500e+04
    1.7679857090e-02    8.0872726562e+04
    1.7689904198e-02    8.0862679688e+04
    1.7699949443e-02    8.0852710938e+04
    1.7709996551e-02    8.0842742188e+04
    1.7719784752e-02    8.0833093750e+04
    1.7729829997e-02    8.0823304688e+04
    1.7739877105e-02    8.0813625000e+04
    1.7749924213e-02    8.0804015625e+04
    1.7759971321e-02    8.0794492188e+04
    1.7769759521e-02    8.0785320312e+04
    1.7779806629e-02    8.0775984375e+04
    1.7789853737e-02    8.0766679688e+04
    1.7799900845e-02    8.0757421875e+04
    1.7809947953e-02    8.0748312500e+04
    1.7819995061e-02    8.0739367188e+04
    1.7829785123e-02    8.0730671875e+04
    1.7839832231e-02    8.0721726562e+04
    1.7849881202e-02    8.0712875000e+04
    1.7859928310e-02    8.0704210938e+04
    1.7869975418e-02    8.0695671875e+04
    1.7879767343e-02    8.0687351562e+04
    1.7889814451e-02    8.0678843750e+04
    1.7899863422e-02    8.0670429688e+04
    1.7909910530e-02    8.0662156250e+04
    1.7919959500e-02    8.0653968750e+04
    1.7929749563e-02    8.0646015625e+04
    1.7939798534e-02    8.0637914062e+04
    1.7949847504e-02    8.0629953125e+04
    1.7959896475e-02    8.0622140625e+04
    1.7969945446e-02    8.0614359375e+04
    1.7979994416e-02    8.0606570312e+04
    1.7989784479e-02    8.0599078125e+04
    1.7999835312e-02    8.0591531250e+04
    1.8009884283e-02    8.0584085938e+04
    1.8019933254e-02    8.0576703125e+04
    1.8029982224e-02    8.0569367188e+04
    1.8039774150e-02    8.0562320312e+04
    1.8049823120e-02    8.0555171875e+04
    1.8059873953e-02    8.0548109375e+04
    1.8069922924e-02    8.0541140625e+04
    1.8079973757e-02    8.0534265625e+04
    1.8089765683e-02    8.0527609375e+04
    1.8099814653e-02    8.0520796875e+04
    1.8109865487e-02    8.0514109375e+04
    1.8119914457e-02    8.0507601562e+04
    1.8129965290e-02    8.0501195312e+04
    1.8139759079e-02    8.0494929688e+04
    1.8149808049e-02    8.0488515625e+04
    1.8159858882e-02    8.0482242188e+04
    1.8169909716e-02    8.0476101562e+04
    1.8179960549e-02    8.0470031250e+04
    1.8189752474e-02    8.0464156250e+04
    1.8199803308e-02    8.0458210938e+04
    1.8209854141e-02    8.0452375000e+04
    1.8219906837e-02    8.0446617188e+04
    1.8229957670e-02    8.0440906250e+04
    1.8239749596e-02    8.0435390625e+04
    1.8249802291e-02    8.0429835938e+04
    1.8259853125e-02    8.0424382812e+04
    1.8269903958e-02    8.0419015625e+04
    1.8279954791e-02    8.0413718750e+04
    1.8289748579e-02    8.0408656250e+04
    1.8299801275e-02    8.0403546875e+04
    1.8309852108e-02    8.0398507812e+04
    1.8319904804e-02    8.0393507812e+04
    1.8329955637e-02    8.0388632812e+04
    1.8339749426e-02    8.0384039062e+04
    1.8349802122e-02    8.0379398438e+04
    1.8359852955e-02    8.0374710938e+04
    1.8369905651e-02    8.0370054688e+04
    1.8379958346e-02    8.0365570312e+04
    1.8389752135e-02    8.0361359375e+04
    1.8399804831e-02    8.0357078125e+04
    1.8409857526e-02    8.0352796875e+04
    1.8419908360e-02    8.0348578125e+04
    1.8429961056e-02    8.0344476562e+04
    1.8439756706e-02    8.0340601562e+04
    1.8449809402e-02    8.0336742188e+04
    1.8459862098e-02    8.0332960938e+04
    1.8469914794e-02    8.0329242188e+04
    1.8479967490e-02    8.0325593750e+04
    1.8489761278e-02    8.0322078125e+04
    1.8499813974e-02    8.0318539062e+04
    1.8509866670e-02    8.0315125000e+04
    1.8519921228e-02    8.0311828125e+04
    1.8529973924e-02    8.0308585938e+04
    1.8539767712e-02    8.0305492188e+04
    1.8549822271e-02    8.0302437500e+04
    1.8559874967e-02    8.0299460938e+04
    1.8569927663e-02    8.0296515625e+04
    1.8579980358e-02    8.0293648438e+04
    1.8589776009e-02    8.0290984375e+04
    1.8599828705e-02    8.0288375000e+04
    1.8609883264e-02    8.0285828125e+04
    1.8619935960e-02    8.0283265625e+04
    1.8629990518e-02    8.0280773438e+04
    1.8639784306e-02    8.0278500000e+04
    1.8649838865e-02    8.0276312500e+04
    1.8659891561e-02    8.0274171875e+04
    1.8669946119e-02    8.0272023438e+04
    1.8679998815e-02    8.0269953125e+04
    1.8689796329e-02    8.0268062500e+04
    1.8699849024e-02    8.0266210938e+04
    1.8709903583e-02    8.0264460938e+04
    1.8719956279e-02    8.0262812500e+04
    1.8729751930e-02    8.0261304688e+04
    1.8739806488e-02    8.0259804688e+04
    1.8749861047e-02    8.0258328125e+04
    1.8759913743e-02    8.0256968750e+04
    1.8769968301e-02    8.0255750000e+04
    1.8779763952e-02    8.0254656250e+04
    1.8789818510e-02    8.0253531250e+04
    1.8799873069e-02    8.0252460938e+04
    1.8809925765e-02    8.0251562500e+04
    1.8819980323e-02    8.0250812500e+04
    1.8829775974e-02    8.0250132812e+04
    1.8839830533e-02    8.0249453125e+04
    1.8849885091e-02    8.0248828125e+04
    1.8859939650e-02    8.0248312500e+04
    1.8869992346e-02    8.0247906250e+04
    1.8879789859e-02    8.0247570312e+04
    1.8889844418e-02    8.0247296875e+04
    1.8899897113e-02    8.0247132812e+04
    1.8909951672e-02    8.0247078125e+04
    1.8919749185e-02    8.0247093750e+04
    1.8929801881e-02    8.0247179688e+04
    1.8939856440e-02    8.0247375000e+04
    1.8949910998e-02    8.0247679688e+04
    1.8959965557e-02    8.0248109375e+04
    1.8969761208e-02    8.0248656250e+04
    1.8979815766e-02    8.0249320312e+04
    1.8989870325e-02    8.0250039062e+04
    1.8999924883e-02    8.0250796875e+04
    1.9009979442e-02    8.0251609375e+04
    1.9019776955e-02    8.0252492188e+04
    1.9029831514e-02    8.0253507812e+04
    1.9039884210e-02    8.0254625000e+04
    1.9049938768e-02    8.0255781250e+04
    1.9059993327e-02    8.0257023438e+04
    1.9069790840e-02    8.0258406250e+04
    1.9079845399e-02    8.0259960938e+04
    1.9089899957e-02    8.0261562500e+04
    1.9099954516e-02    8.0263187500e+04
    1.9109750167e-02    8.0264882812e+04
    1.9119804725e-02    8.0266757812e+04
    1.9129859284e-02    8.0268742188e+04
    1.9139913842e-02    8.0270820312e+04
    1.9149968401e-02    8.0272953125e+04
    1.9159765914e-02    8.0275062500e+04
    1.9169820473e-02    8.0277289062e+04
    1.9179875031e-02    8.0279632812e+04
    1.9189927727e-02    8.0282085938e+04
    1.9199982285e-02    8.0284632812e+04
    1.9209779799e-02    8.0287179688e+04
    1.9219834358e-02    8.0289851562e+04
    1.9229888916e-02    8.0292640625e+04
    1.9239943475e-02    8.0295570312e+04
    1.9249998033e-02    8.0298601562e+04
    1.9259795547e-02    8.0301601562e+04
    1.9269850105e-02    8.0304757812e+04
    1.9279904664e-02    8.0308015625e+04
    1.9289959222e-02    8.0311359375e+04
    1.9299754873e-02    8.0314664062e+04
    1.9309809431e-02    8.0318117188e+04
    1.9319863990e-02    8.0321703125e+04
    1.9329918548e-02    8.0325460938e+04
    1.9339973107e-02    8.0329390625e+04
    1.9349770620e-02    8.0333312500e+04
    1.9359825179e-02    8.0337351562e+04
    1.9369879737e-02    8.0341390625e+04
    1.9379932433e-02    8.0345500000e+04
    1.9389986992e-02    8.0349757812e+04
    1.9399784505e-02    8.0354054688e+04
    1.9409839064e-02    8.0358609375e+04
    1.9419893622e-02    8.0363265625e+04
    1.9429948181e-02    8.0367984375e+04
    1.9439743832e-02    8.0372609375e+04
[...]
    1.1513976753e-01    1.0123208594e+05
    1.1514992267e-01    1.0123207031e+05
    1.1515977234e-01    1.0123206250e+05
    1.1516992003e-01    1.0123205469e+05
    1.1517976969e-01    1.0123203906e+05
    1.1518991739e-01    1.0123203906e+05
    1.1519976705e-01    1.0123203906e+05
    1.1520992219e-01    1.0123203125e+05
    1.1521977186e-01    1.0123202344e+05
    1.1522991955e-01    1.0123202344e+05
    1.1523976922e-01    1.0123200781e+05
    1.1524991691e-01    1.0123199219e+05
    1.1525977403e-01    1.0123197656e+05
    1.1526992172e-01    1.0123196875e+05
    1.1527977139e-01    1.0123196094e+05
    1.1528991908e-01    1.0123194531e+05
    1.1529976875e-01    1.0123193750e+05
    1.1530992389e-01    1.0123192969e+05
    1.1531977355e-01    1.0123191406e+05
    1.1532992125e-01    1.0123191406e+05
    1.1533977091e-01    1.0123190625e+05
    1.1534991860e-01    1.0123189844e+05
    1.1535977572e-01    1.0123189844e+05
    1.1536992341e-01    1.0123188281e+05
    1.1537977308e-01    1.0123187500e+05
    1.1538992077e-01    1.0123186719e+05
    1.1539977044e-01    1.0123185156e+05
    1.1540992558e-01    1.0123184375e+05
    1.1541977525e-01    1.0123183594e+05
    1.1542992294e-01    1.0123183594e+05
    1.1543977261e-01    1.0123182031e+05
    1.1544992030e-01    1.0123181250e+05
    1.1545977741e-01    1.0123180469e+05
    1.1546992511e-01    1.0123180469e+05
    1.1547977477e-01    1.0123178906e+05
    1.1548992246e-01    1.0123178906e+05
    1.1549977213e-01    1.0123178125e+05
    1.1550992727e-01    1.0123177344e+05
    1.1551977694e-01    1.0123175781e+05
    1.1552992463e-01    1.0123175000e+05
    1.1553977430e-01    1.0123174219e+05
    1.1554992199e-01    1.0123172656e+05
    1.1555977911e-01    1.0123171875e+05
    1.1556992680e-01    1.0123171094e+05
    1.1557977647e-01    1.0123171094e+05
    1.1558992416e-01    1.0123169531e+05
    1.1559977382e-01    1.0123168750e+05
    1.1560992897e-01    1.0123167969e+05
    1.1561977863e-01    1.0123166406e+05
    1.1562992632e-01    1.0123166406e+05
    1.1563977599e-01    1.0123165625e+05
    1.1564992368e-01    1.0123164844e+05
    1.1565978080e-01    1.0123164844e+05
    1.1566992849e-01    1.0123163281e+05
    1.1567977816e-01    1.0123161719e+05
    1.1568992585e-01    1.0123160156e+05
    1.1569977552e-01    1.0123160156e+05
    1.1570993066e-01    1.0123159375e+05
    1.1571978033e-01    1.0123158594e+05
    1.1572992802e-01    1.0123158594e+05
    1.1573977768e-01    1.0123157031e+05
    1.1574992537e-01    1.0123156250e+05
    1.1575978249e-01    1.0123155469e+05
    1.1576993018e-01    1.0123153906e+05
    1.1577977985e-01    1.0123153906e+05
    1.1578992754e-01    1.0123153125e+05
    1.1579977721e-01    1.0123152344e+05
    1.1580993235e-01    1.0123152344e+05
    1.1581978202e-01    1.0123150781e+05
    1.1582992971e-01    1.0123150000e+05
    1.1583977938e-01    1.0123149219e+05
    1.1584992707e-01    1.0123147656e+05
    1.1585977674e-01    1.0123147656e+05
    1.1586993188e-01    1.0123146875e+05
    1.1587978154e-01    1.0123146094e+05
    1.1588992923e-01    1.0123146094e+05
    1.1589977890e-01    1.0123144531e+05
    1.1590993404e-01    1.0123143750e+05
    1.1591978371e-01    1.0123141406e+05
    1.1592993140e-01    1.0123141406e+05
    1.1593978107e-01    1.0123140625e+05
    1.1594992876e-01    1.0123139844e+05
    1.1595977843e-01    1.0123139844e+05
    1.1596993357e-01    1.0123138281e+05
    1.1597978324e-01    1.0123137500e+05
    1.1598993093e-01    1.0123136719e+05
    1.1599978060e-01    1.0123135156e+05
    1.1600992829e-01    1.0123135156e+05
    1.1601978540e-01    1.0123134375e+05
    1.1602993309e-01    1.0123133594e+05
    1.1603978276e-01    1.0123133594e+05
    1.1604993045e-01    1.0123132031e+05
    1.1605978012e-01    1.0123130469e+05
    1.1606993526e-01    1.0123128906e+05
    1.1607978493e-01    1.0123128906e+05
    1.1608993262e-01    1.0123128125e+05
    1.1609978229e-01    1.0123127344e+05
    1.1610992998e-01    1.0123127344e+05
    1.1611978710e-01    1.0123125781e+05
    1.1612993479e-01    1.0123125000e+05
    1.1613978446e-01    1.0123124219e+05
    1.1614993215e-01    1.0123122656e+05
    1.1615978181e-01    1.0123122656e+05
    1.1616993695e-01    1.0123121875e+05
    1.1617978662e-01    1.0123121094e+05
    1.1618993431e-01    1.0123121094e+05
    1.1619978398e-01    1.0123119531e+05
    1.1620993167e-01    1.0123119531e+05
    1.1621978879e-01    1.0123118750e+05
    1.1622993648e-01    1.0123117969e+05
    1.1623978615e-01    1.0123116406e+05
    1.1624993384e-01    1.0123116406e+05
    1.1625978351e-01    1.0123115625e+05
    1.1626993865e-01    1.0123114844e+05
    1.1627978832e-01    1.0123114844e+05
    1.1628993601e-01    1.0123113281e+05
    1.1629978567e-01    1.0123112500e+05
    1.1630993336e-01    1.0123111719e+05
    1.1631979048e-01    1.0123110156e+05
    1.1632993817e-01    1.0123110156e+05
    1.1633978784e-01    1.0123109375e+05
    1.1634993553e-01    1.0123108594e+05
    1.1635978520e-01    1.0123108594e+05
    1.1636994034e-01    1.0123106250e+05
    1.1637979001e-01    1.0123105469e+05
    1.1638993770e-01    1.0123103906e+05
    1.1639978737e-01    1.0123103906e+05
    1.1640993506e-01    1.0123102344e+05
    1.1641979218e-01    1.0123102344e+05
    1.1642993987e-01    1.0123100781e+05
    1.1643978953e-01    1.0123100000e+05
    1.1644993722e-01    1.0123099219e+05
    1.1645978689e-01    1.0123097656e+05
    1.1646994203e-01    1.0123097656e+05
    1.1647979170e-01    1.0123096875e+05
    1.1648993939e-01    1.0123096875e+05
    1.1649978906e-01    1.0123096094e+05
    1.1650993675e-01    1.0123096094e+05
    1.1651979387e-01    1.0123094531e+05
    1.1652994156e-01    1.0123092969e+05
    1.1653979123e-01    1.0123091406e+05
    1.1654993892e-01    1.0123091406e+05
    1.1655978858e-01    1.0123090625e+05
    1.1656994373e-01    1.0123089844e+05
    1.1657979339e-01    1.0123088281e+05
    1.1658994108e-01    1.0123087500e+05
    1.1659979075e-01    1.0123086719e+05
    1.1660993844e-01    1.0123085156e+05
    1.1661979556e-01    1.0123084375e+05
    1.1662994325e-01    1.0123083594e+05
    1.1663979292e-01    1.0123083594e+05
    1.1664994061e-01    1.0123082031e+05
    1.1665979028e-01    1.0123081250e+05
    1.1666994542e-01    1.0123078906e+05
    1.1667979509e-01    1.0123078906e+05
    1.1668994278e-01    1.0123077344e+05
    1.1669979244e-01    1.0123077344e+05
    1.1670994014e-01    1.0123075781e+05
    1.1671978980e-01    1.0123075000e+05
    1.1672994494e-01    1.0123075000e+05
    1.1673979461e-01    1.0123074219e+05
    1.1674994230e-01    1.0123074219e+05
    1.1675979197e-01    1.0123072656e+05
    1.1676994711e-01    1.0123072656e+05
    1.1677979678e-01    1.0123072656e+05
    1.1678994447e-01    1.0123071875e+05
    1.1679979414e-01    1.0123071094e+05
    1.1680994183e-01    1.0123071094e+05
    1.1681979150e-01    1.0123069531e+05
    1.1682994664e-01    1.0123067969e+05
    1.1683979630e-01    1.0123066406e+05
    1.1684994400e-01    1.0123066406e+05
    1.1685979366e-01    1.0123065625e+05
    1.1686994135e-01    1.0123064844e+05
    1.1687979847e-01    1.0123064844e+05
    1.1688994616e-01    1.0123063281e+05
    1.1689979583e-01    1.0123062500e+05
    1.1690994352e-01    1.0123061719e+05
    1.1691979319e-01    1.0123060156e+05
    1.1692994833e-01    1.0123060156e+05
    1.1693979800e-01    1.0123059375e+05
    1.1694994569e-01    1.0123058594e+05
    1.1695979536e-01    1.0123058594e+05
    1.1696994305e-01    1.0123057031e+05
    1.1697980016e-01    1.0123056250e+05
    1.1698994786e-01    1.0123055469e+05
    1.1699979752e-01    1.0123053906e+05
    1.1700994521e-01    1.0123053906e+05
    1.1701979488e-01    1.0123053125e+05
    1.1702995002e-01    1.0123052344e+05
    1.1703979969e-01    1.0123052344e+05
    1.1704994738e-01    1.0123052344e+05
    1.1705979705e-01    1.0123050781e+05
    1.1706994474e-01    1.0123050000e+05
    1.1707980186e-01    1.0123049219e+05
    1.1708994955e-01    1.0123047656e+05
    1.1709979922e-01    1.0123047656e+05
    1.1710994691e-01    1.0123046875e+05
    1.1711979657e-01    1.0123046094e+05
    1.1712995172e-01    1.0123046094e+05
    1.1713980138e-01    1.0123044531e+05
    1.1714994907e-01    1.0123042969e+05
    1.1715979874e-01    1.0123041406e+05
    1.1716994643e-01    1.0123041406e+05
    1.1717980355e-01    1.0123040625e+05
    1.1718995124e-01    1.0123039844e+05
    1.1719980091e-01    1.0123039844e+05
    1.1720994860e-01    1.0123038281e+05
    1.1721979827e-01    1.0123037500e+05
    1.1722995341e-01    1.0123036719e+05
    1.1723980308e-01    1.0123035156e+05
    1.1724995077e-01    1.0123034375e+05
    1.1725980043e-01    1.0123033594e+05
    1.1726994812e-01    1.0123033594e+05
    1.1727980524e-01    1.0123032031e+05
    1.1728995293e-01    1.0123031250e+05
    1.1729980260e-01    1.0123030469e+05
    1.1730995029e-01    1.0123028906e+05
    1.1731979996e-01    1.0123028906e+05
    1.1732995510e-01    1.0123028125e+05
    1.1733980477e-01    1.0123027344e+05
    1.1734995246e-01    1.0123027344e+05
    1.1735980213e-01    1.0123025781e+05
    1.1736994982e-01    1.0123024219e+05
    1.1737980694e-01    1.0123022656e+05
    1.1738995463e-01    1.0123022656e+05
    1.1739980429e-01    1.0123021875e+05
    1.1740995198e-01    1.0123021094e+05
    1.1741980165e-01    1.0123021094e+05
    1.1742995679e-01    1.0123018750e+05
    1.1743980646e-01    1.0123017969e+05
    1.1744995415e-01    1.0123016406e+05
    1.1745980382e-01    1.0123016406e+05
    1.1746995151e-01    1.0123015625e+05
    1.1747980863e-01    1.0123014844e+05
    1.1748995632e-01    1.0123014844e+05
    1.1749980599e-01    1.0123013281e+05
    1.1750995368e-01    1.0123012500e+05
    1.1751980335e-01    1.0123011719e+05
    1.1752995849e-01    1.0123010156e+05
    1.1753980815e-01    1.0123010156e+05
    1.1754995584e-01    1.0123009375e+05
    1.1755980551e-01    1.0123008594e+05
    1.1756995320e-01    1.0123008594e+05
    1.1757981032e-01    1.0123006250e+05
    1.1758995801e-01    1.0123005469e+05
    1.1759980768e-01    1.0123003906e+05
    1.1760995537e-01    1.0123003906e+05
    1.1761980504e-01    1.0123003125e+05
    1.1762996018e-01    1.0123002344e+05
    1.1763980985e-01    1.0123000781e+05
    1.1764995754e-01    1.0123000000e+05
    1.1765980721e-01    1.0122999219e+05
    1.1766995490e-01    1.0122997656e+05
    1.1767980456e-01    1.0122997656e+05
    1.1768995970e-01    1.0122996875e+05
    1.1769980937e-01    1.0122996094e+05
    1.1770995706e-01    1.0122996094e+05
    1.1771980673e-01    1.0122994531e+05
    1.1772996187e-01    1.0122992969e+05
    1.1773981154e-01    1.0122991406e+05
    1.1774995923e-01    1.0122991406e+05
    1.1775980890e-01    1.0122990625e+05
    1.1776995659e-01    1.0122989844e+05
    1.1777980626e-01    1.0122989844e+05
    1.1778996140e-01    1.0122988281e+05
    1.1779981107e-01    1.0122987500e+05
    1.1780995876e-01    1.0122986719e+05
    1.1781980842e-01    1.0122985156e+05
    1.1782996356e-01    1.0122985156e+05
    1.1783981323e-01    1.0122984375e+05
    1.1784996092e-01    1.0122983594e+05
    1.1785981059e-01    1.0122983594e+05
    1.1786995828e-01    1.0122982031e+05
    1.1787980795e-01    1.0122981250e+05
    1.1788996309e-01    1.0122980469e+05
    1.1789981276e-01    1.0122978906e+05
    1.1790996045e-01    1.0122978906e+05
    1.1791981012e-01    1.0122978125e+05
    1.1792996526e-01    1.0122977344e+05
    1.1793981493e-01    1.0122975781e+05
    1.1794996262e-01    1.0122975000e+05
    1.1795981228e-01    1.0122974219e+05
    1.1796995997e-01    1.0122972656e+05
    1.1797980964e-01    1.0122972656e+05
    1.1798996478e-01    1.0122971875e+05
    1.1799981445e-01    1.0122971094e+05
    1.1800996214e-01    1.0122971094e+05
    1.1801981181e-01    1.0122971094e+05
    1.1802996695e-01    1.0122969531e+05
    1.1803981662e-01    1.0122968750e+05
    1.1804996431e-01    1.0122967969e+05
    1.1805981398e-01    1.0122966406e+05
    1.1806996167e-01    1.0122966406e+05
    1.1807981133e-01    1.0122965625e+05
    1.1808996648e-01    1.0122964844e+05
    1.1809981614e-01    1.0122964844e+05
    1.1810996383e-01    1.0122963281e+05
    1.1811981350e-01    1.0122962500e+05
    1.1812996864e-01    1.0122961719e+05
    1.1813981831e-01    1.0122960156e+05
    1.1814996600e-01    1.0122959375e+05
    1.1815981567e-01    1.0122958594e+05
    1.1816996336e-01    1.0122958594e+05
    1.1817982048e-01    1.0122957031e+05
    1.1818996817e-01    1.0122956250e+05
    1.1819981784e-01    1.0122955469e+05
    1.1820996553e-01    1.0122955469e+05
    1.1821981519e-01    1.0122953906e+05
    1.1822997034e-01    1.0122953906e+05
    1.1823982000e-01    1.0122953125e+05
    1.1824996769e-01    1.0122952344e+05
    1.1825981736e-01    1.0122952344e+05
    1.1826996505e-01    1.0122950781e+05
    1.1827982217e-01    1.0122950000e+05
    1.1828996986e-01    1.0122949219e+05
    1.1829981953e-01    1.0122947656e+05
    1.1830996722e-01    1.0122947656e+05
    1.1831981689e-01    1.0122946875e+05
    1.1832997203e-01    1.0122946094e+05
    1.1833982170e-01    1.0122946094e+05
    1.1834996939e-01    1.0122944531e+05
    1.1835981905e-01    1.0122943750e+05
    1.1836996675e-01    1.0122942969e+05
    1.1837982386e-01    1.0122942969e+05
    1.1838997155e-01    1.0122941406e+05
    1.1839982122e-01    1.0122941406e+05
    1.1840996891e-01    1.0122940625e+05
    1.1841981858e-01    1.0122939844e+05
    1.1842997372e-01    1.0122938281e+05
    1.1843982339e-01    1.0122937500e+05
    1.1844997108e-01    1.0122936719e+05
    1.1845982075e-01    1.0122935156e+05
    1.1846996844e-01    1.0122935156e+05
    1.1847982556e-01    1.0122934375e+05
    1.1848997325e-01    1.0122934375e+05
    1.1849982291e-01    1.0122933594e+05
    1.1850997061e-01    1.0122933594e+05
    1.1851982027e-01    1.0122932031e+05
    1.1852997541e-01    1.0122931250e+05
    1.1853982508e-01    1.0122930469e+05
    1.1854997277e-01    1.0122928906e+05
    1.1855982244e-01    1.0122928906e+05
    1.1856997013e-01    1.0122928906e+05
    1.1857982725e-01    1.0122928125e+05
    1.1858997494e-01    1.0122927344e+05
    1.1859982461e-01    1.0122927344e+05
    1.1860997230e-01    1.0122925781e+05
    1.1861982197e-01    1.0122925000e+05
    1.1862997711e-01    1.0122924219e+05
    1.1863982677e-01    1.0122922656e+05
    1.1864997447e-01    1.0122922656e+05
    1.1865982413e-01    1.0122921094e+05
    1.1866997182e-01    1.0122921094e+05
    1.1867982894e-01    1.0122919531e+05
    1.1868997663e-01    1.0122918750e+05
    1.1869982630e-01    1.0122917969e+05
    1.1870997399e-01    1.0122916406e+05
    1.1871982366e-01    1.0122916406e+05
    1.1872997880e-01    1.0122916406e+05
    1.1873982847e-01    1.0122915625e+05
    1.1874997616e-01    1.0122914844e+05
    1.1875982583e-01    1.0122914844e+05
    1.1876997352e-01    1.0122914844e+05
    1.1877983063e-01    1.0122913281e+05
    1.1878997833e-01    1.0122912500e+05
    1.1879982799e-01    1.0122912500e+05
    1.1880997568e-01    1.0122911719e+05
    1.1881982535e-01    1.0122910156e+05
    1.1882998049e-01    1.0122910156e+05
    1.1883983016e-01    1.0122909375e+05
    1.1884997785e-01    1.0122908594e+05
    1.1885982752e-01    1.0122908594e+05
    1.1886997521e-01    1.0122908594e+05
    1.1887983233e-01    1.0122907031e+05
    1.1888998002e-01    1.0122906250e+05
    1.1889982969e-01    1.0122905469e+05
    1.1890997738e-01    1.0122903906e+05
    1.1891982704e-01    1.0122903906e+05
    1.1892998219e-01    1.0122903125e+05
    1.1893983185e-01    1.0122902344e+05
    1.1894997954e-01    1.0122902344e+05
    1.1895982921e-01    1.0122900781e+05
    1.1896997690e-01    1.0122900000e+05
    1.1897983402e-01    1.0122899219e+05
    1.1898998171e-01    1.0122897656e+05
    1.1899983138e-01    1.0122897656e+05
    1.1900997907e-01    1.0122896875e+05
    1.1901982874e-01    1.0122896094e+05
    1.1902998388e-01    1.0122896094e+05
    1.1903983355e-01    1.0122896094e+05
    1.1904998124e-01    1.0122894531e+05
    1.1905983090e-01    1.0122893750e+05
    1.1906998605e-01    1.0122892969e+05
    1.1907983571e-01    1.0122891406e+05
    1.1908998340e-01    1.0122891406e+05
    1.1909983307e-01    1.0122890625e+05
    1.1910998076e-01    1.0122889844e+05
    1.1911983043e-01    1.0122888281e+05
    1.1912998557e-01    1.0122887500e+05
    1.1913983524e-01    1.0122886719e+05
    1.1914998293e-01    1.0122885156e+05
    1.1915983260e-01    1.0122885156e+05
    1.1916998774e-01    1.0122884375e+05
    1.1917983741e-01    1.0122883594e+05
    1.1918998510e-01    1.0122883594e+05
    1.1919983476e-01    1.0122882031e+05
    1.1920998245e-01    1.0122881250e+05
    1.1921983957e-01    1.0122880469e+05
    1.1922998726e-01    1.0122878906e+05
    1.1923983693e-01    1.0122878906e+05
    1.1924998462e-01    1.0122878125e+05
    1.1925983429e-01    1.0122877344e+05
    1.1926998943e-01    1.0122877344e+05
    1.1927983910e-01    1.0122877344e+05
    1.1928998679e-01    1.0122875781e+05
    1.1929983646e-01    1.0122875000e+05
    1.1930998415e-01    1.0122874219e+05
    1.1931984127e-01    1.0122872656e+05
    1.1932998896e-01    1.0122872656e+05
    1.1933983862e-01    1.0122871094e+05
    1.1934998631e-01    1.0122871094e+05
    1.1935983598e-01    1.0122869531e+05
    1.1936999112e-01    1.0122868750e+05
    1.1937984079e-01    1.0122867969e+05
    1.1938998848e-01    1.0122866406e+05
    1.1939983815e-01    1.0122866406e+05
    1.1940998584e-01    1.0122866406e+05
    1.1941984296e-01    1.0122865625e+05
    1.1942999065e-01    1.0122864844e+05
    1.1943984032e-01    1.0122864844e+05
    1.1944998801e-01    1.0122863281e+05
    1.1945983768e-01    1.0122862500e+05
    1.1946999282e-01    1.0122861719e+05
    1.1947984248e-01    1.0122860156e+05
    1.1948999017e-01    1.0122860156e+05
    1.1949983984e-01    1.0122859375e+05
    1.1950998753e-01    1.0122858594e+05
    1.1951984465e-01    1.0122858594e+05
    1.1952999234e-01    1.0122857031e+05
    1.1953984201e-01    1.0122856250e+05
    1.1954998970e-01    1.0122855469e+05
    1.1955983937e-01    1.0122853906e+05
    1.1956999451e-01    1.0122853906e+05
    1.1957984418e-01    1.0122853906e+05
    1.1958999187e-01    1.0122853125e+05
    1.1959984154e-01    1.0122852344e+05
    1.1960998923e-01    1.0122852344e+05
    1.1961984634e-01    1.0122850781e+05
    1.1962999403e-01    1.0122850000e+05
    1.1963984370e-01    1.0122849219e+05
    1.1964999139e-01    1.0122847656e+05
    1.1965984106e-01    1.0122847656e+05
    1.1966999620e-01    1.0122846875e+05
    1.1967984587e-01    1.0122846094e+05
    1.1968999356e-01    1.0122846094e+05
    1.1969984323e-01    1.0122844531e+05
    1.1970999092e-01    1.0122843750e+05
    1.1971984804e-01    1.0122842969e+05
    1.1972999573e-01    1.0122841406e+05
    1.1973984540e-01    1.0122841406e+05
    1.1974999309e-01    1.0122840625e+05
    1.1975984275e-01    1.0122839844e+05
    1.1976999789e-01    1.0122839844e+05
    1.1977984756e-01    1.0122838281e+05
    1.1978999525e-01    1.0122837500e+05
    1.1979984492e-01    1.0122836719e+05
    1.1981000006e-01    1.0122835156e+05
    1.1981984973e-01    1.0122835156e+05
    1.1982999742e-01    1.0122834375e+05
    1.1983984709e-01    1.0122833594e+05
    1.1984999478e-01    1.0122833594e+05
    1.1985985190e-01    1.0122832031e+05
    1.1986999959e-01    1.0122831250e+05
    1.1987984926e-01    1.0122830469e+05
    1.1988999695e-01    1.0122828906e+05
    1.1989984661e-01    1.0122828906e+05
    1.1991000175e-01    1.0122828125e+05
    1.1991985142e-01    1.0122828125e+05
    1.1992999911e-01    1.0122827344e+05
    1.1993984878e-01    1.0122827344e+05
    1.1994999647e-01    1.0122825781e+05
    1.1995985359e-01    1.0122825000e+05
    1.1997000128e-01    1.0122825000e+05
    1.1997985095e-01    1.0122824219e+05
    1.1998970062e-01    1.0122822656e+05
    1.1999984831e-01    1.0122822656e+05
endcurve
