Curveplot
LS-DYNA keyword deck by LS-PrePost                          
Time
Pressure
Defined Connection
Pressure @ 59 #pts=14001
* Minval=     9.6730968750e+04 at time=         0.0910598114
* Maxval=     1.1270322656e+05 at time=         0.0693097562
    0.0000000000e+00    1.0120000000e+05
    9.9483822851e-06    1.0120000000e+05
    1.9897117454e-05    1.0120000000e+05
    2.9947306757e-05    1.0120000000e+05
    3.9941485738e-05    1.0120000000e+05
    4.9978167226e-05    1.0120000000e+05
    5.9987396526e-05    1.0120000000e+05
    6.9957743108e-05    1.0120000000e+05
    7.9954355897e-05    1.0120000000e+05
    8.9994893642e-05    1.0120000000e+05
    9.9963275716e-05    1.0120000000e+05
    1.0999362712e-04    1.0120000000e+05
    1.1994068336e-04    1.0120000000e+05
    1.2992923439e-04    1.0120000000e+05
    1.3995468908e-04    1.0120000000e+05
    1.4993750665e-04    1.0120000000e+05
    1.5994343266e-04    1.0120000000e+05
    1.6996683553e-04    1.0120000000e+05
    1.7992436187e-04    1.0120000000e+05
    1.8996305880e-04    1.0120000000e+05
    1.9992106536e-04    1.0120000000e+05
    2.0995002706e-04    1.0120000000e+05
    2.1996497526e-04    1.0120000000e+05
    2.2995928884e-04    1.0120000000e+05
    2.3992637580e-04    1.0120000000e+05
    2.4994512205e-04    1.0120000000e+05
    2.5992578594e-04    1.0120000000e+05
    2.6994937798e-04    1.0120000000e+05
    2.7992360992e-04    1.0120000000e+05
    2.8993157321e-04    1.0120000000e+05
    2.9996965895e-04    1.0120000000e+05
    3.0994205736e-04    1.0120000000e+05
    3.1993474113e-04    1.0120000000e+05
    3.2994340290e-04    1.0120000000e+05
    3.3996097045e-04    1.0120000000e+05
    3.4997612238e-04    1.0120000000e+05
    3.5998257226e-04    1.0120000000e+05
    3.6997915595e-04    1.0120000000e+05
    3.7996418541e-04    1.0120000000e+05
    3.8993591443e-04    1.0120000000e+05
    3.9999262663e-04    1.0120000000e+05
    4.0993341827e-04    1.0120000000e+05
    4.1995756328e-04    1.0120000000e+05
    4.2996325647e-04    1.0120000000e+05
    4.3994883890e-04    1.0120000000e+05
    4.4991285540e-04    1.0120000000e+05
    4.5995874098e-04    1.0120000000e+05
    4.6998143080e-04    1.0120000000e+05
    4.7997938236e-04    1.0120000000e+05
    4.8995099496e-04    1.0120000000e+05
    4.9989472609e-04    1.0120000000e+05
    5.0991831813e-04    1.0120000000e+05
    5.1991257351e-04    1.0120000000e+05
    5.2998698084e-04    1.0120000000e+05
    5.3991837194e-04    1.0120000000e+05
    5.4992840160e-04    1.0120000000e+05
    5.5990414694e-04    1.0120000000e+05
    5.6995858904e-04    1.0120000000e+05
    5.7997694239e-04    1.0120000000e+05
    5.8995746076e-04    1.0120000000e+05
    5.9989845613e-04    1.0120000000e+05
    6.0991646023e-04    1.0120000000e+05
    6.1989319511e-04    1.0120000000e+05
    6.2994711334e-04    1.0120000000e+05
    6.3995807432e-04    1.0120000000e+05
    6.4992433181e-04    1.0120000000e+05
    6.5996689955e-04    1.0120000000e+05
    6.6996301757e-04    1.0120000000e+05
    6.7991076503e-04    1.0120000000e+05
    6.8993412424e-04    1.0120000000e+05
    6.9990725024e-04    1.0120000000e+05
    7.0995604619e-04    1.0120000000e+05
    7.1995280450e-04    1.0120000000e+05
    7.2989560431e-04    1.0120000000e+05
    7.3991308454e-04    1.0120000000e+05
    7.4987468543e-04    1.0120000000e+05
    7.5991102494e-04    1.0120000000e+05
    7.6988944784e-04    1.0120000000e+05
    7.7994243475e-04    1.0120000000e+05
    7.8993546776e-04    1.0120000000e+05
    7.9986645142e-04    1.0120000000e+05
    8.0987083493e-04    1.0120000000e+05
    8.1994954962e-04    1.0120000000e+05
    8.2996394485e-04    1.0120000000e+05
    8.3991186693e-04    1.0120000000e+05
    8.4993272321e-04    1.0120000000e+05
    8.5988489445e-04    1.0120000000e+05
    8.6990976706e-04    1.0120000000e+05
    8.7986339349e-04    1.0120000000e+05
    8.8988948846e-04    1.0120000000e+05
    8.9998880867e-04    1.0120000000e+05
    9.0986641590e-04    1.0120000000e+05
    9.1996375704e-04    1.0120000000e+05
    9.2998478794e-04    1.0120000000e+05
    9.3992712209e-04    1.0120000000e+05
    9.4994058600e-04    1.0120000000e+05
    9.5987267559e-04    1.0120000000e+05
    9.6987548750e-04    1.0120000000e+05
    9.7994972020e-04    1.0120000000e+05
    9.8993955180e-04    1.0120000000e+05
    9.9984242115e-04    1.0120000000e+05
    1.0099736974e-03    1.0120000000e+05
    1.0198574746e-03    1.0120000000e+05
    1.0299711721e-03    1.0120000000e+05
    1.0399944149e-03    1.0120000000e+05
    1.0499247583e-03    1.0120000000e+05
    1.0599237867e-03    1.0120000000e+05
    1.0699925479e-03    1.0120000000e+05
    1.0799646843e-03    1.0120000000e+05
    1.0898376349e-03    1.0120000000e+05
    1.0999469087e-03    1.0120000000e+05
    1.1099560652e-03    1.0120000000e+05
    1.1198625434e-03    1.0120000000e+05
    1.1298360769e-03    1.0120000000e+05
    1.1398771312e-03    1.0120000000e+05
    1.1499867542e-03    1.0120000000e+05
    1.1599892750e-03    1.0120000000e+05
    1.1698821327e-03    1.0120000000e+05
    1.1798407650e-03    1.0120000000e+05
    1.1898658704e-03    1.0120000000e+05
    1.1999580311e-03    1.0120000000e+05
    1.2099358719e-03    1.0120000000e+05
    1.2199798366e-03    1.0120000000e+05
    1.2299062219e-03    1.0120000000e+05
    1.2398974504e-03    1.0120000000e+05
    1.2499543373e-03    1.0120000000e+05
    1.2598895701e-03    1.0120000000e+05
    1.2698892970e-03    1.0120000000e+05
    1.2799543329e-03    1.0120000000e+05
    1.2898937566e-03    1.0120000000e+05
    1.2998973252e-03    1.0120000000e+05
    1.3099658536e-03    1.0120000000e+05
    1.3199044624e-03    1.0120000000e+05
    1.3299068669e-03    1.0120000000e+05
    1.3399739983e-03    1.0120000000e+05
    1.3499067863e-03    1.0120000000e+05
    1.3599032536e-03    1.0120000000e+05
    1.3699637493e-03    1.0120000000e+05
    1.3798858272e-03    1.0120000000e+05
    1.3898707693e-03    1.0120000000e+05
    1.3999195071e-03    1.0120000000e+05
    1.4098255197e-03    1.0120000000e+05
    1.4197940473e-03    1.0120000000e+05
    1.4298255555e-03    1.0120000000e+05
    1.4399209758e-03    1.0120000000e+05
    1.4498687815e-03    1.0120000000e+05
    1.4598789858e-03    1.0120000000e+05
    1.4699527528e-03    1.0120000000e+05
    1.4798742486e-03    1.0120000000e+05
    1.4898576774e-03    1.0120000000e+05
    1.4999038540e-03    1.0120000000e+05
    1.5097933356e-03    1.0120000000e+05
    1.5199660556e-03    1.0120000000e+05
    1.5299806837e-03    1.0120000000e+05
    1.5398337273e-03    1.0120000000e+05
    1.5499736182e-03    1.0120000000e+05
    1.5599501785e-03    1.0120000000e+05
    1.5699899523e-03    1.0120000000e+05
    1.5798615059e-03    1.0120000000e+05
    1.5897954581e-03    1.0120000000e+05
    1.5997897135e-03    1.0120000000e+05
    1.6098468332e-03    1.0120000000e+05
    1.6199680977e-03    1.0120000000e+05
    1.6299163690e-03    1.0120000000e+05
    1.6399259912e-03    1.0120000000e+05
    1.6499982448e-03    1.0120000000e+05
    1.6598922666e-03    1.0120000000e+05
    1.6698470572e-03    1.0120000000e+05
    1.6798628494e-03    1.0120000000e+05
    1.6899408074e-03    1.0120000000e+05
    1.6998356441e-03    1.0120000000e+05
    1.7097903183e-03    1.0120000000e+05
    1.7198079731e-03    1.0120000000e+05
    1.7298873281e-03    1.0120000000e+05
    1.7397766933e-03    1.0120000000e+05
    1.7499829410e-03    1.0120000000e+05
    1.7599965213e-03    1.0120000000e+05
    1.7698137090e-03    1.0120000000e+05
    1.7799519701e-03    1.0120000000e+05
    1.7898922088e-03    1.0120000000e+05
    1.7998943804e-03    1.0120000000e+05
    1.8099591834e-03    1.0120000000e+05
    1.8198199105e-03    1.0120000000e+05
    1.8297417555e-03    1.0120000000e+05
    1.8399964320e-03    1.0120000000e+05
    1.8497718265e-03    1.0120000000e+05
    1.8598817987e-03    1.0120000000e+05
    1.8697797786e-03    1.0120000000e+05
    1.8797398079e-03    1.0120000000e+05
    1.8897622358e-03    1.0120000000e+05
    1.8998478772e-03    1.0120000000e+05
    1.9099977799e-03    1.0120000000e+05
    1.9199281232e-03    1.0120000000e+05
    1.9299208652e-03    1.0120000000e+05
    1.9399768207e-03    1.0120000000e+05
    1.9498069305e-03    1.0120000000e+05
    1.9599902444e-03    1.0120000000e+05
    1.9699453842e-03    1.0120000000e+05
    1.9799636211e-03    1.0120000000e+05
    1.9897485618e-03    1.0120000000e+05
    1.9998936914e-03    1.0120000000e+05
    2.0098034292e-03    1.0120000000e+05
    2.0197755657e-03    1.0120000000e+05
    2.0298117306e-03    1.0120000000e+05
    2.0399123896e-03    1.0120000000e+05
    2.0497695077e-03    1.0120000000e+05
    2.0596892573e-03    1.0120000000e+05
    2.0699852612e-03    1.0120000000e+05
    2.0797194447e-03    1.0120000000e+05
    2.0898319781e-03    1.0120000000e+05
    2.0996916573e-03    1.0120000000e+05
    2.1099355072e-03    1.0120000000e+05
    2.1199244075e-03    1.0120000000e+05
    2.1299782675e-03    1.0120000000e+05
    2.1397706587e-03    1.0120000000e+05
    2.1499549039e-03    1.0120000000e+05
    2.1598758176e-03    1.0120000000e+05
    2.1698609926e-03    1.0120000000e+05
    2.1799118258e-03    1.0120000000e+05
    2.1896909457e-03    1.0120000000e+05
    2.1998737939e-03    1.0120000000e+05
    2.2097823676e-03    1.0120000000e+05
    2.2197561339e-03    1.0120000000e+05
    2.2297960240e-03    1.0120000000e+05
    2.2399032023e-03    1.0120000000e+05
    2.2497265600e-03    1.0120000000e+05
    2.2599690128e-03    1.0120000000e+05
    2.2699250840e-03    1.0120000000e+05
    2.2799477447e-03    1.0120000000e+05
    2.2896768060e-03    1.0120000000e+05
    2.2998338100e-03    1.0120000000e+05
    2.3096946534e-03    1.0120000000e+05
    2.3199901916e-03    1.0120000000e+05
    2.3299867753e-03    1.0120000000e+05
    2.3396776523e-03    1.0120000000e+05
    2.3498097435e-03    1.0120000000e+05
    2.3596331012e-03    1.0120000000e+05
    2.3699048907e-03    1.0120000000e+05
    2.3798653856e-03    1.0120000000e+05
    2.3898945656e-03    1.0120000000e+05
    2.3999940604e-03    1.0120000000e+05
    2.4097724818e-03    1.0120000000e+05
    2.4196177255e-03    1.0120000000e+05
    2.4299295619e-03    1.0120000000e+05
    2.4399152026e-03    1.0120000000e+05
    2.4499716237e-03    1.0120000000e+05
    2.4596934672e-03    1.0120000000e+05
    2.4698921479e-03    1.0120000000e+05
    2.4797529913e-03    1.0120000000e+05
    2.4896834511e-03    1.0120000000e+05
    2.4996853899e-03    1.0120000000e+05
    2.5097595062e-03    1.0120000000e+05
    2.5199076626e-03    1.0120000000e+05
    2.5297033135e-03    1.0120000000e+05
    2.5400000159e-03    1.0120000000e+05
    2.5499374606e-03    1.0120000000e+05
    2.5599217042e-03    1.0120000000e+05
    2.5699497201e-03    1.0120000000e+05
    2.5795872789e-03    1.0120000000e+05
    2.5896818843e-03    1.0120000000e+05
    2.5998027995e-03    1.0120000000e+05
    2.6099493261e-03    1.0120000000e+05
    2.6196739636e-03    1.0120000000e+05
    2.6298745070e-03    1.0120000000e+05
    2.6396149769e-03    1.0120000000e+05
    2.6498103980e-03    1.0120000000e+05
    2.6595916133e-03    1.0120000000e+05
    2.6697772555e-03    1.0120000000e+05
    2.6799889747e-03    1.0120000000e+05
    2.6897734497e-03    1.0120000000e+05
    2.6999523398e-03    1.0120000000e+05
    2.7097275015e-03    1.0120000000e+05
    2.7199261822e-03    1.0120000000e+05
    2.7296892367e-03    1.0120000000e+05
    2.7398744132e-03    1.0120000000e+05
    2.7496083640e-03    1.0120000000e+05
    2.7598005254e-03    1.0120000000e+05
    2.7699787170e-03    1.0120000000e+05
    2.7797170915e-03    1.0120000000e+05
    2.7898813132e-03    1.0120000000e+05
    2.7995915152e-03    1.0120000000e+05
    2.8098085895e-03    1.0120000000e+05
    2.8199213557e-03    1.0120000000e+05
    2.8296653181e-03    1.0120000000e+05
    2.8398260474e-03    1.0120000000e+05
    2.8499774635e-03    1.0120000000e+05
    2.8596764896e-03    1.0120000000e+05
    2.8698104434e-03    1.0120000000e+05
    2.8796123806e-03    1.0120000000e+05
    2.8898217715e-03    1.0120000000e+05
    2.8995706234e-03    1.0120000000e+05
    2.9098186642e-03    1.0120000000e+05
    2.9196438845e-03    1.0120000000e+05
    2.9299310409e-03    1.0120000000e+05
    2.9397851322e-03    1.0120000000e+05
    2.9496429488e-03    1.0120000000e+05
    2.9599580448e-03    1.0120000000e+05
    2.9698573053e-03    1.0120000000e+05
    2.9797577299e-03    1.0120000000e+05
    2.9896656051e-03    1.0120000000e+05
    2.9995744117e-03    1.0120000000e+05
    3.0099262949e-03    1.0120000000e+05
    3.0198490713e-03    1.0120000000e+05
    3.0297785997e-03    1.0120000000e+05
    3.0396843795e-03    1.0120000000e+05
    3.0495747924e-03    1.0120000000e+05
    3.0599075835e-03    1.0120000000e+05
    3.0697705224e-03    1.0120000000e+05
    3.0795957427e-03    1.0120000000e+05
    3.0898607802e-03    1.0120000000e+05
    3.0996357091e-03    1.0120000000e+05
    3.1098276377e-03    1.0120000000e+05
    3.1199674122e-03    1.0120000000e+05
    3.1296170782e-03    1.0120000000e+05
    3.1396455597e-03    1.0120000000e+05
    3.1496137381e-03    1.0120000000e+05
    3.1599521171e-03    1.0120000000e+05
    3.1698001549e-03    1.0120000000e+05
    3.1795897521e-03    1.0120000000e+05
    3.1897439621e-03    1.0120000000e+05
    3.1998367049e-03    1.0120000000e+05
    3.2098686788e-03    1.0120000000e+05
    3.2198403496e-03    1.0120000000e+05
    3.2297524158e-03    1.0120000000e+05
    3.2396058086e-03    1.0120000000e+05
    3.2498077489e-03    1.0120000000e+05
    3.2599475235e-03    1.0120000000e+05
    3.2696232665e-03    1.0120000000e+05
    3.2796426676e-03    1.0120000000e+05
    3.2899982762e-03    1.0120000000e+05
    3.2998949755e-03    1.0120000000e+05
    3.3097323030e-03    1.0120000000e+05
    3.3199007157e-03    1.0120000000e+05
    3.3296188340e-03    1.0120000000e+05
    3.3396650106e-03    1.0120000000e+05
    3.3496494871e-03    1.0120000000e+05
    3.3599531744e-03    1.0120000000e+05
    3.3698137850e-03    1.0120000000e+05
    3.3799903467e-03    1.0120000000e+05
    3.3897294197e-03    1.0120000000e+05
    3.3997809514e-03    1.0120000000e+05
    3.4097693861e-03    1.0120000000e+05
    3.4196956549e-03    1.0120000000e+05
    3.4299243707e-03    1.0120000000e+05
    3.4397251438e-03    1.0120000000e+05
    3.4498244058e-03    1.0120000000e+05
    3.4598589409e-03    1.0120000000e+05
    3.4698289819e-03    1.0120000000e+05
    3.4797349945e-03    1.0120000000e+05
    3.4899278544e-03    1.0120000000e+05
    3.4997051116e-03    1.0120000000e+05
    3.5097657237e-03    1.0120000000e+05
    3.5197592806e-03    1.0120000000e+05
    3.5296864808e-03    1.0120000000e+05
    3.5398867913e-03    1.0120000000e+05
    3.5496805795e-03    1.0120000000e+05
    3.5597435199e-03    1.0120000000e+05
    3.5697368439e-03    1.0120000000e+05
    3.5799911711e-03    1.0120000000e+05
    3.5898450296e-03    1.0120000000e+05
    3.5999557003e-03    1.0120000000e+05
    3.6099939607e-03    1.0120000000e+05
    3.6199602764e-03    1.0120000000e+05
    3.6298546474e-03    1.0120000000e+05
    3.6399930250e-03    1.0120000000e+05
    3.6497423425e-03    1.0120000000e+05
    3.6597317085e-03    1.0120000000e+05
    3.6699541379e-03    1.0120000000e+05
    3.6797907669e-03    1.0120000000e+05
    3.6898560356e-03    1.0120000000e+05
    3.6998421419e-03    1.0120000000e+05
    3.7097488530e-03    1.0120000000e+05
    3.7198730279e-03    1.0120000000e+05
    3.7299133837e-03    1.0120000000e+05
    3.7398699205e-03    1.0120000000e+05
    3.7497431040e-03    1.0120000000e+05
    3.7598190829e-03    1.0120000000e+05
    3.7698065862e-03    1.0120000000e+05
    3.7799871061e-03    1.0120000000e+05
    3.7897950970e-03    1.0120000000e+05
    3.7997907493e-03    1.0120000000e+05
    3.8099663798e-03    1.0120000000e+05
    3.8197713438e-03    1.0120000000e+05
    3.8297506981e-03    1.0120000000e+05
    3.8398958277e-03    1.0120000000e+05
    3.8499352522e-03    1.0120000000e+05
    3.8598685060e-03    1.0120000000e+05
    3.8699526340e-03    1.0120000000e+05
    3.8799240720e-03    1.0120000000e+05
    3.8897823542e-03    1.0120000000e+05
    3.8997747470e-03    1.0120000000e+05
    3.9098914713e-03    1.0120000000e+05
    3.9198803715e-03    1.0120000000e+05
    3.9299791679e-03    1.0120000000e+05
    3.9399415255e-03    1.0120000000e+05
    3.9499979466e-03    1.0120000000e+05
    3.9599076845e-03    1.0120000000e+05
    3.9698942564e-03    1.0120000000e+05
    3.9799450897e-03    1.0120000000e+05
    3.9898282848e-03    1.0120000000e+05
    3.9999689907e-03    1.0120000000e+05
    4.0099201724e-03    1.0120000000e+05
    4.0198834613e-03    1.0120000000e+05
    4.0298416279e-03    1.0120000000e+05
    4.0399711579e-03    1.0120000000e+05
    4.0498543531e-03    1.0120000000e+05
    4.0598548949e-03    1.0120000000e+05
    4.0699304081e-03    1.0120000000e+05
    4.0798587725e-03    1.0120000000e+05
    4.0899398737e-03    1.0120000000e+05
    4.0999278426e-03    1.0120000000e+05
    4.1098981164e-03    1.0120000000e+05
    4.1198660620e-03    1.0120000000e+05
    4.1298931465e-03    1.0120000000e+05
    4.1399430484e-03    1.0120000000e+05
    4.1499291547e-03    1.0120000000e+05
    4.1599590331e-03    1.0120000000e+05
    4.1699102148e-03    1.0120000000e+05
    4.1799964383e-03    1.0120000000e+05
    4.1899550706e-03    1.0120000000e+05
    4.1998908855e-03    1.0120000000e+05
    4.2098802514e-03    1.0120000000e+05
    4.2199292220e-03    1.0120000000e+05
    4.2298547924e-03    1.0120000000e+05
    4.2399307713e-03    1.0120000000e+05
    4.2499708943e-03    1.0120000000e+05
    4.2599616572e-03    1.0120000000e+05
    4.2698928155e-03    1.0120000000e+05
    4.2798346840e-03    1.0120000000e+05
    4.2899977416e-03    1.0120000000e+05
    4.2999442667e-03    1.0120000000e+05
    4.3099727482e-03    1.0120000000e+05
    4.3199262582e-03    1.0120000000e+05
    4.3299482204e-03    1.0120000000e+05
    4.3398849666e-03    1.0120000000e+05
    4.3498682790e-03    1.0120000000e+05
    4.3599549681e-03    1.0120000000e+05
    4.3698837981e-03    1.0120000000e+05
    4.3799099512e-03    1.0120000000e+05
    4.3899775483e-03    1.0120000000e+05
    4.3999175541e-03    1.0120000000e+05
    4.4099087827e-03    1.0120000000e+05
    4.4199759141e-03    1.0120000000e+05
    4.4298665598e-03    1.0120000000e+05
    4.4398307800e-03    1.0120000000e+05
    4.4498275965e-03    1.0120000000e+05
    4.4598951936e-03    1.0120000000e+05
    4.4699800201e-03    1.0120000000e+05
    4.4799298048e-03    1.0120000000e+05
    4.4899065979e-03    1.0120000000e+05
    4.4999471866e-03    1.0120000000e+05
    4.5098131523e-03    1.0120000000e+05
    4.5199240558e-03    1.0120000000e+05
    4.5298803598e-03    1.0120000000e+05
    4.5398497023e-03    1.0120000000e+05
    4.5498884283e-03    1.0120000000e+05
    4.5599257573e-03    1.0120000000e+05
    4.5698443428e-03    1.0120000000e+05
    4.5799491927e-03    1.0120000000e+05
    4.5899394900e-03    1.0120000000e+05
    4.5999181457e-03    1.0120000000e+05
    4.6099475585e-03    1.0120000000e+05
    4.6198097989e-03    1.0120000000e+05
    4.6298773959e-03    1.0120000000e+05
    4.6398360282e-03    1.0120000000e+05
    4.6499473974e-03    1.0120000000e+05
    4.6599744819e-03    1.0120000000e+05
    4.6699494123e-03    1.0120000000e+05
    4.6799988486e-03    1.0120000000e+05
    4.6898657456e-03    1.0120000000e+05
    4.6999463812e-03    1.0120000000e+05
    4.7098882496e-03    1.0120000000e+05
    4.7198235989e-03    1.0120000000e+05
    4.7298143618e-03    1.0120000000e+05
    4.7398279421e-03    1.0120000000e+05
    4.7498694621e-03    1.0120000000e+05
    4.7599580139e-03    1.0120000000e+05
    4.7698388807e-03    1.0120000000e+05
    4.7799833119e-03    1.0120000000e+05
    4.7899307683e-03    1.0120000000e+05
    4.7998940572e-03    1.0120000000e+05
    4.8099071719e-03    1.0120000000e+05
    4.8199282028e-03    1.0120000000e+05
    4.8299846239e-03    1.0120000000e+05
    4.8398454674e-03    1.0120000000e+05
    4.8499447294e-03    1.0120000000e+05
    4.8598507419e-03    1.0120000000e+05
    4.8697781749e-03    1.0120000000e+05
    4.8799561337e-03    1.0120000000e+05
    4.8899273388e-03    1.0120000000e+05
    4.8999157734e-03    1.0120000000e+05
    4.9099372700e-03    1.0120000000e+05
    4.9199699424e-03    1.0120000000e+05
    4.9297907390e-03    1.0120000000e+05
    4.9398709089e-03    1.0120000000e+05
    4.9499622546e-03    1.0120000000e+05
    4.9598379992e-03    1.0120000000e+05
    4.9699726515e-03    1.0120000000e+05
    4.9798898399e-03    1.0120000000e+05
    4.9898144789e-03    1.0120000000e+05
    4.9999998882e-03    1.0120000000e+05
    5.0099659711e-03    1.0120000000e+05
    5.0199357793e-03    1.0120000000e+05
    5.0299307331e-03    1.0120000000e+05
    5.0399410538e-03    1.0120000000e+05
    5.0499527715e-03    1.0120000000e+05
    5.0599817187e-03    1.0120000000e+05
    5.0697955303e-03    1.0120000000e+05
    5.0798449665e-03    1.0120000000e+05
    5.0899051130e-03    1.0120000000e+05
    5.0999796949e-03    1.0120000000e+05
    5.1098256372e-03    1.0120000000e+05
    5.1199095324e-03    1.0120000000e+05
    5.1297694445e-03    1.0120000000e+05
    5.1398715004e-03    1.0120000000e+05
    5.1499749534e-03    1.0120000000e+05
    5.1598479040e-03    1.0120000000e+05
    5.1699574105e-03    1.0120000000e+05
    5.1798322238e-03    1.0120000000e+05
    5.1899421960e-03    1.0120000000e+05
    5.1998179406e-03    1.0120000000e+05
    5.2099288441e-03    1.0120000000e+05
    5.2198050544e-03    1.0120000000e+05
    5.2299164236e-03    1.0120000000e+05
    5.2397926338e-03    1.0120000000e+05
    5.2499044687e-03    1.0120000000e+05
    5.2597806789e-03    1.0120000000e+05
    5.2698920481e-03    1.0120000000e+05
    5.2797677927e-03    1.0120000000e+05
    5.2898786962e-03    1.0120000000e+05
    5.2999886684e-03    1.0120000000e+05
    5.3098634817e-03    1.0120000000e+05
    5.3199734539e-03    1.0120000000e+05
    5.3298473358e-03    1.0120000000e+05
    5.3399559110e-03    1.0120000000e+05
    5.3498283960e-03    1.0120000000e+05
    5.3599360399e-03    1.0120000000e+05
    5.3698080592e-03    1.0120000000e+05
    5.3799143061e-03    1.0120000000e+05
    5.3897849284e-03    1.0120000000e+05
    5.3998893127e-03    1.0120000000e+05
    5.4099932313e-03    1.0120000000e+05
    5.4198624566e-03    1.0120000000e+05
    5.4299640469e-03    1.0120000000e+05
    5.4398290813e-03    1.0120000000e+05
    5.4499316029e-03    1.0120000000e+05
    5.4597984999e-03    1.0120000000e+05
    5.4698931053e-03    1.0120000000e+05
    5.4799979553e-03    1.0120000000e+05
    5.4898778908e-03    1.0120000000e+05
    5.4999785498e-03    1.0120000000e+05
    5.5098552257e-03    1.0120000000e+05
    5.5199917406e-03    1.0120000000e+05
    5.5298828520e-03    1.0120000000e+05
    5.5397707038e-03    1.0120000000e+05
    5.5499244481e-03    1.0120000000e+05
    5.5598500185e-03    1.0120000000e+05
    5.5699953809e-03    1.0120000000e+05
    5.5799246766e-03    1.0120000000e+05
    5.5898763239e-03    1.0120000000e+05
    5.5998205207e-03    1.0120000000e+05
    5.6097684428e-03    1.0120000000e+05
    5.6199752726e-03    1.0120000000e+05
    5.6299488060e-03    1.0120000000e+05
    5.6399223395e-03    1.0120000000e+05
    5.6499131024e-03    1.0120000000e+05
    5.6599117815e-03    1.0120000000e+05
    5.6699104607e-03    1.0120000000e+05
    5.6799203157e-03    1.0120000000e+05
    5.6899450719e-03    1.0120000000e+05
    5.6999693625e-03    1.0120000000e+05
    5.7099978440e-03    1.0120000000e+05
    5.7198023424e-03    1.0120000000e+05
    5.7298541069e-03    1.0120000000e+05
    5.7399068028e-03    1.0120000000e+05
    5.7499660179e-03    1.0120000000e+05
    5.7598017156e-03    1.0120000000e+05
    5.7698795572e-03    1.0120000000e+05
    5.7799625210e-03    1.0120000000e+05
    5.7898112573e-03    1.0120000000e+05
    5.7999105193e-03    1.0120000000e+05
    5.8097764850e-03    1.0120000000e+05
    5.8198864572e-03    1.0120000000e+05
    5.8297640644e-03    1.0120000000e+05
    5.8398880064e-03    1.0120000000e+05
    5.8497800492e-03    1.0120000000e+05
    5.8599147014e-03    1.0120000000e+05
    5.8698151261e-03    1.0120000000e+05
    5.8799618855e-03    1.0120000000e+05
    5.8898800053e-03    1.0120000000e+05
    5.8998023160e-03    1.0120000000e+05
    5.9099695645e-03    1.0120000000e+05
    5.9199049138e-03    1.0120000000e+05
    5.9298435226e-03    1.0120000000e+05
    5.9397919104e-03    1.0120000000e+05
    5.9499787167e-03    1.0120000000e+05
    5.9599340893e-03    1.0120000000e+05
    5.9698936529e-03    1.0120000000e+05
    5.9798615985e-03    1.0120000000e+05
    5.9898314066e-03    1.0120000000e+05
    5.9998044744e-03    1.0120000000e+05
    6.0097910464e-03    1.0120000000e+05
    6.0197776183e-03    1.0120000000e+05
    6.0297744349e-03    1.0120000000e+05
    6.0397670604e-03    1.0120000000e+05
    6.0497717932e-03    1.0120000000e+05
    6.0597816482e-03    1.0120000000e+05
    6.0697952285e-03    1.0120000000e+05
    6.0798129998e-03    1.0120000000e+05
    6.0898312367e-03    1.0120000000e+05
    6.0998648405e-03    1.0120000000e+05
    6.1098933220e-03    1.0120000000e+05
    6.1199339107e-03    1.0120000000e+05
    6.1299717054e-03    1.0120000000e+05
    6.1397748068e-03    1.0120000000e+05
    6.1498293653e-03    1.0120000000e+05
    6.1598797329e-03    1.0120000000e+05
    6.1699459329e-03    1.0120000000e+05
    6.1797583476e-03    1.0120000000e+05
    6.1898343265e-03    1.0120000000e+05
    6.1999042518e-03    1.0120000000e+05
    6.2099825591e-03    1.0120000000e+05
    6.2198224477e-03    1.0120000000e+05
    6.2299044803e-03    1.0120000000e+05
    6.2397560105e-03    1.0120000000e+05
    6.2498403713e-03    1.0120000000e+05
    6.2599466182e-03    1.0120000000e+05
    6.2698018737e-03    1.0120000000e+05
    6.2799104489e-03    1.0120000000e+05
    6.2897764146e-03    1.0120000000e+05
    6.2998826616e-03    1.0120000000e+05
    6.3097598031e-03    1.0120000000e+05
    6.3198762946e-03    1.0120000000e+05
    6.3297613524e-03    1.0120000000e+05
    6.3398857601e-03    1.0120000000e+05
    6.3497703522e-03    1.0120000000e+05
    6.3599068671e-03    1.0120000000e+05
    6.3697928563e-03    1.0120000000e+05
    6.3799410127e-03    1.0120000000e+05
    6.3898381777e-03    1.0120000000e+05
    6.3999937847e-03    1.0120000000e+05
    6.4098965377e-03    1.0120000000e+05
    6.4198020846e-03    1.0120000000e+05
    6.4299558289e-03    1.0120000000e+05
    6.4398683608e-03    1.0120000000e+05
    6.4497943968e-03    1.0120000000e+05
    6.4599714242e-03    1.0120000000e+05
    6.4698979259e-03    1.0120000000e+05
    6.4798211679e-03    1.0120000000e+05
    6.4899907447e-03    1.0120000000e+05
    6.4999125898e-03    1.0120000000e+05
    6.5098395571e-03    1.0120000000e+05
    6.5197753720e-03    1.0120000000e+05
    6.5299589187e-03    1.0120000000e+05
    6.5398910083e-03    1.0120000000e+05
    6.5498212352e-03    1.0120000000e+05
    6.5599987283e-03    1.0120000000e+05
    6.5699261613e-03    1.0120000000e+05
    6.5798540600e-03    1.0120000000e+05
    6.5897870809e-03    1.0120000000e+05
    6.5999762155e-03    1.0120000000e+05
    6.6099190153e-03    1.0120000000e+05
    6.6198604181e-03    1.0120000000e+05
    6.6298004240e-03    1.0120000000e+05
    6.6399872303e-03    1.0120000000e+05
    6.6499249078e-03    1.0120000000e+05
    6.6598625854e-03    1.0120000000e+05
    6.6697997972e-03    1.0120000000e+05
    6.6799870692e-03    1.0120000000e+05
    6.6899256781e-03    1.0120000000e+05
    6.6998638213e-03    1.0120000000e+05
    6.7098019645e-03    1.0120000000e+05
    6.7199878395e-03    1.0120000000e+05
    6.7299255170e-03    1.0120000000e+05
    6.7398631945e-03    1.0120000000e+05
    6.7498013377e-03    1.0120000000e+05
    6.7599876784e-03    1.0120000000e+05
    6.7699253559e-03    1.0120000000e+05
    6.7798625678e-03    1.0120000000e+05
    6.7897993140e-03    1.0120000000e+05
    6.7999842577e-03    1.0120000000e+05
    6.8099205382e-03    1.0120000000e+05
    6.8198568188e-03    1.0120000000e+05
    6.8297921680e-03    1.0120000000e+05
    6.8399757147e-03    1.0120000000e+05
    6.8499105982e-03    1.0120000000e+05
    6.8598450162e-03    1.0120000000e+05
    6.8697794341e-03    1.0120000000e+05
    6.8799615838e-03    1.0120000000e+05
    6.8898950703e-03    1.0120000000e+05
    6.8998285569e-03    1.0120000000e+05
    6.9097615778e-03    1.0120000000e+05
    6.9199423306e-03    1.0120000000e+05
    6.9298748858e-03    1.0120000000e+05
    6.9398065098e-03    1.0120000000e+05
    6.9499877281e-03    1.0120000000e+05
    6.9599216804e-03    1.0120000000e+05
    6.9698574953e-03    1.0120000000e+05
    6.9797942415e-03    1.0120000000e+05
    6.9899782538e-03    1.0120000000e+05
    6.9999126717e-03    1.0120000000e+05
    7.0098456927e-03    1.0120000000e+05
    7.0197782479e-03    1.0120000000e+05
    7.0299580693e-03    1.0120000000e+05
    7.0398896933e-03    1.0120000000e+05
    7.0498259738e-03    1.0120000000e+05
    7.0597669110e-03    1.0120000000e+05
    7.0699560456e-03    1.0120000000e+05
    7.0798951201e-03    1.0120000000e+05
    7.0898337290e-03    1.0120000000e+05
    7.0997714065e-03    1.0120000000e+05
    7.1099572815e-03    1.0120000000e+05
    7.1198949590e-03    1.0120000000e+05
    7.1298354305e-03    1.0120000000e+05
    7.1397791617e-03    1.0120000000e+05
    7.1499710903e-03    1.0120000000e+05
    7.1599124931e-03    1.0120000000e+05
    7.1698538959e-03    1.0120000000e+05
    7.1797934361e-03    1.0120000000e+05
    7.1899848990e-03    1.0120000000e+05
    7.1999323554e-03    1.0120000000e+05
    7.2098793462e-03    1.0120000000e+05
    7.2198249400e-03    1.0120000000e+05
    7.2297700681e-03    1.0120000000e+05
    7.2399629280e-03    1.0120000000e+05
    7.2499103844e-03    1.0120000000e+05
    7.2598606348e-03    1.0120000000e+05
    7.2698099539e-03    1.0120000000e+05
    7.2797583416e-03    1.0120000000e+05
    7.2899544612e-03    1.0120000000e+05
    7.2999033146e-03    1.0120000000e+05
    7.3098554276e-03    1.0120000000e+05
    7.3198075406e-03    1.0120000000e+05
    7.3297587223e-03    1.0120000000e+05
    7.3399576358e-03    1.0120000000e+05
    7.3499092832e-03    1.0120000000e+05
    7.3598641902e-03    1.0120000000e+05
    7.3698177002e-03    1.0120000000e+05
    7.3797702789e-03    1.0120000000e+05
    7.3899715208e-03    1.0120000000e+05
    7.3999264278e-03    1.0120000000e+05
    7.4098818004e-03    1.0120000000e+05
    7.4198367074e-03    1.0120000000e+05
    7.4297911488e-03    1.0120000000e+05
    7.4399947189e-03    1.0120000000e+05
    7.4499510229e-03    1.0120000000e+05
    7.4599068612e-03    1.0120000000e+05
    7.4698622338e-03    1.0120000000e+05
    7.4798171408e-03    1.0120000000e+05
    7.4897734448e-03    1.0120000000e+05
    7.4999784119e-03    1.0120000000e+05
    7.5099337846e-03    1.0120000000e+05
    7.5198891573e-03    1.0120000000e+05
    7.5298449956e-03    1.0120000000e+05
    7.5398008339e-03    1.0120000000e+05
    7.5497562066e-03    1.0120000000e+05
    7.5599607080e-03    1.0120000000e+05
    7.5699160807e-03    1.0120000000e+05
    7.5798714533e-03    1.0120000000e+05
    7.5898263603e-03    1.0120000000e+05
    7.5997812673e-03    1.0120000000e+05
    7.6099848375e-03    1.0120000000e+05
    7.6199397445e-03    1.0120000000e+05
    7.6298937201e-03    1.0120000000e+05
    7.6398481615e-03    1.0120000000e+05
    7.6498021372e-03    1.0120000000e+05
    7.6597561128e-03    1.0120000000e+05
    7.6699587516e-03    1.0120000000e+05
    7.6799122617e-03    1.0120000000e+05
    7.6898657717e-03    1.0120000000e+05
    7.6998188160e-03    1.0120000000e+05
    7.7097718604e-03    1.0120000000e+05
    7.7199735679e-03    1.0120000000e+05
    7.7299266122e-03    1.0120000000e+05
    7.7398801222e-03    1.0120000000e+05
    7.7498340979e-03    1.0120000000e+05
    7.7597880736e-03    1.0120000000e+05
    7.7699907124e-03    1.0120000000e+05
    7.7799470164e-03    1.0120000000e+05
    7.7899042517e-03    1.0120000000e+05
    7.7998600900e-03    1.0120000000e+05
    7.8098182566e-03    1.0120000000e+05
    7.8197820112e-03    1.0120000000e+05
    7.8299976885e-03    1.0120000000e+05
    7.8399647027e-03    1.0120000000e+05
    7.8499307856e-03    1.0120000000e+05
    7.8598959371e-03    1.0120000000e+05
    7.8698610887e-03    1.0120000000e+05
    7.8798262402e-03    1.0120000000e+05
    7.8897913918e-03    1.0120000000e+05
    7.8997556120e-03    1.0120000000e+05
    7.9099694267e-03    1.0120000000e+05
    7.9199355096e-03    1.0120000000e+05
    7.9299025238e-03    1.0120000000e+05
    7.9398704693e-03    1.0120000000e+05
    7.9498374835e-03    1.0120000000e+05
    7.9598082229e-03    1.0120000000e+05
    7.9697864130e-03    1.0120000000e+05
    7.9797655344e-03    1.0120000000e+05
    7.9899942502e-03    1.0120000000e+05
    7.9999817535e-03    1.0120000000e+05
    8.0099748448e-03    1.0120000000e+05
    8.0199707299e-03    1.0120000000e+05
    8.0299666151e-03    1.0120000000e+05
    8.0399625003e-03    1.0120000000e+05
    8.0499649048e-03    1.0120000000e+05
    8.0599710345e-03    1.0120000000e+05
    8.0699799582e-03    1.0120000000e+05
    8.0799842253e-03    1.0120000000e+05
    8.0899931490e-03    1.0120000000e+05
    8.0997673795e-03    1.0120000000e+05
    8.1098061055e-03    1.0120000000e+05
    8.1198466942e-03    1.0120000000e+05
    8.1298891455e-03    1.0120000000e+05
    8.1399343908e-03    1.0120000000e+05
    8.1499805674e-03    1.0120000000e+05
    8.1597734243e-03    1.0120000000e+05
    8.1698177382e-03    1.0120000000e+05
    8.1798601896e-03    1.0120000000e+05
    8.1899054348e-03    1.0120000000e+05
    8.1999544054e-03    1.0120000000e+05
    8.2097519189e-03    1.0120000000e+05
    8.2198008895e-03    1.0120000000e+05
    8.2298489287e-03    1.0120000000e+05
    8.2398969680e-03    1.0120000000e+05
    8.2499440759e-03    1.0120000000e+05
    8.2599911839e-03    1.0120000000e+05
    8.2697877660e-03    1.0120000000e+05
    8.2798367366e-03    1.0120000000e+05
    8.2898857072e-03    1.0120000000e+05
    8.2999346778e-03    1.0120000000e+05
    8.3099827170e-03    1.0120000000e+05
    8.3197820932e-03    1.0120000000e+05
    8.3298357204e-03    1.0120000000e+05
    8.3398902789e-03    1.0120000000e+05
    8.3499457687e-03    1.0120000000e+05
    8.3597507328e-03    1.0120000000e+05
    8.3698164672e-03    1.0120000000e+05
    8.3798868582e-03    1.0120000000e+05
    8.3899609745e-03    1.0120000000e+05
    8.3997808397e-03    1.0120000000e+05
    8.4098605439e-03    1.0120000000e+05
    8.4199504927e-03    1.0120000000e+05
    8.4297955036e-03    1.0120000000e+05
    8.4398929030e-03    1.0120000000e+05
    8.4499884397e-03    1.0120000000e+05
    8.4598399699e-03    1.0120000000e+05
    8.4699587896e-03    1.0120000000e+05
    8.4798289463e-03    1.0120000000e+05
    8.4899533540e-03    1.0120000000e+05
    8.4998263046e-03    1.0120000000e+05
    8.5099590942e-03    1.0120000000e+05
    8.5198488086e-03    1.0120000000e+05
    8.5299974307e-03    1.0120000000e+05
    8.5398973897e-03    1.0120000000e+05
    8.5497964174e-03    1.0120000000e+05
    8.5599571466e-03    1.0120000000e+05
    8.5698720068e-03    1.0120000000e+05
    8.5797924548e-03    1.0120000000e+05
    8.5899755359e-03    1.0120000000e+05
    8.5999062285e-03    1.0120000000e+05
    8.6098369211e-03    1.0120000000e+05
    8.6197759956e-03    1.0120000000e+05
    8.6299767718e-03    1.0120000000e+05
    8.6399307474e-03    1.0120000000e+05
    8.6498903111e-03    1.0120000000e+05
    8.6598489434e-03    1.0120000000e+05
    8.6698103696e-03    1.0120000000e+05
    8.6797801778e-03    1.0120000000e+05
    8.6897583678e-03    1.0120000000e+05
    8.6999982595e-03    1.0120000000e+05
    8.7099839002e-03    1.0120000000e+05
    8.7199695408e-03    1.0120000000e+05
    8.7299579754e-03    1.0120000000e+05
    8.7399585173e-03    1.0120000000e+05
    8.7499665096e-03    1.0120000000e+05
    8.7599763647e-03    1.0120000000e+05
    8.7699880823e-03    1.0120000000e+05
    8.7797446176e-03    1.0120000000e+05
    8.7897637859e-03    1.0120000000e+05
    8.7997959927e-03    1.0120000000e+05
    8.8098300621e-03    1.0120000000e+05
    8.8198641315e-03    1.0120000000e+05
    8.8299000636e-03    1.0120000000e+05
    8.8399406523e-03    1.0120000000e+05
    8.8499896228e-03    1.0120000000e+05
    8.8597908616e-03    1.0120000000e+05
    8.8698482141e-03    1.0120000000e+05
    8.8799064979e-03    1.0120000000e+05
    8.8899713010e-03    1.0120000000e+05
    8.8997827843e-03    1.0120000000e+05
    8.9098615572e-03    1.0120000000e+05
    8.9199459180e-03    1.0120000000e+05
    8.9297667146e-03    1.0120000000e+05
    8.9398510754e-03    1.0120000000e+05
    8.9499428868e-03    1.0120000000e+05
    8.9597813785e-03    1.0120000000e+05
    8.9698862284e-03    1.0120000000e+05
    8.9799910784e-03    1.0120000000e+05
    8.9898332953e-03    1.0120000000e+05
    8.9999409392e-03    1.0120000000e+05
    9.0098017827e-03    1.0120000000e+05
    9.0199243277e-03    1.0120000000e+05
    9.0297935531e-03    1.0120000000e+05
    9.0399179608e-03    1.0120000000e+05
    9.0497825295e-03    1.0120000000e+05
    9.0599171817e-03    1.0120000000e+05
    9.0698022395e-03    1.0120000000e+05
    9.0799489990e-03    1.0120000000e+05
    9.0898405761e-03    1.0120000000e+05
    9.0999854729e-03    1.0120000000e+05
    9.1098714620e-03    1.0120000000e+05
    9.1197714210e-03    1.0120000000e+05
    9.1299405321e-03    1.0120000000e+05
    9.1398488730e-03    1.0120000000e+05
    9.1497590765e-03    1.0120000000e+05
    9.1599272564e-03    1.0120000000e+05
    9.1698337346e-03    1.0120000000e+05
    9.1797597706e-03    1.0120000000e+05
    9.1899484396e-03    1.0120000000e+05
    9.1998735443e-03    1.0120000000e+05
    9.2098042369e-03    1.0120000000e+05
    9.2199975625e-03    1.0120000000e+05
    9.2299254611e-03    1.0120000000e+05
    9.2398710549e-03    1.0120000000e+05
    9.2498157173e-03    1.0120000000e+05
    9.2597650364e-03    1.0120000000e+05
    9.2699779198e-03    1.0120000000e+05
    9.2799346894e-03    1.0120000000e+05
    9.2898905277e-03    1.0120000000e+05
    9.2998584732e-03    1.0120000000e+05
    9.3098180369e-03    1.0120000000e+05
    9.3197831884e-03    1.0120000000e+05
    9.3297604471e-03    1.0120000000e+05
    9.3399994075e-03    1.0120000000e+05
    9.3499822542e-03    1.0120000000e+05
    9.3599688262e-03    1.0120000000e+05
    9.3699479476e-03    1.0120000000e+05
    9.3799307942e-03    1.0120000000e+05
    9.3899304047e-03    1.0120000000e+05
    9.3999281526e-03    1.0120000000e+05
    9.4099314883e-03    1.0120000000e+05
    9.4199394807e-03    1.0120000000e+05
    9.4299390912e-03    1.0120000000e+05
    9.4399340451e-03    1.0120000000e+05
    9.4499494880e-03    1.0120000000e+05
    9.4599695876e-03    1.0120000000e+05
    9.4699896872e-03    1.0120000000e+05
    9.4797462225e-03    1.0120000000e+05
    9.4897663221e-03    1.0120000000e+05
    9.4997920096e-03    1.0120000000e+05
    9.5098214224e-03    1.0120000000e+05
    9.5198601484e-03    1.0120000000e+05
    9.5299016684e-03    1.0120000000e+05
    9.5399459824e-03    1.0120000000e+05
    9.5499865711e-03    1.0120000000e+05
    9.5597710460e-03    1.0120000000e+05
    9.5698293298e-03    1.0120000000e+05
    9.5798857510e-03    1.0120000000e+05
    9.5899356529e-03    1.0120000000e+05
    9.5999920741e-03    1.0120000000e+05
    9.6097849309e-03    1.0120000000e+05
    9.6198469400e-03    1.0120000000e+05
    9.6299191937e-03    1.0120000000e+05
    9.6399970353e-03    1.0120000000e+05
    9.6498113126e-03    1.0120000000e+05
    9.6598900855e-03    1.0120000000e+05
    9.6699651331e-03    1.0120000000e+05
    9.6797700971e-03    1.0120000000e+05
    9.6898535267e-03    1.0120000000e+05
    9.6999453381e-03    1.0120000000e+05
    9.7097754478e-03    1.0120000000e+05
    9.7198775038e-03    1.0120000000e+05
    9.7299786285e-03    1.0120000000e+05
    9.7398096696e-03    1.0120000000e+05
    9.7499042749e-03    1.0120000000e+05
    9.7599970177e-03    1.0120000000e+05
    9.7698383033e-03    1.0120000000e+05
    9.7799580544e-03    1.0120000000e+05
    9.7898095846e-03    1.0120000000e+05
    9.7999274731e-03    1.0120000000e+05
    9.8097827286e-03    1.0120000000e+05
    9.8198987544e-03    1.0120000000e+05
    9.8297446966e-03    1.0120000000e+05
    9.8398691043e-03    1.0120000000e+05
    9.8497336730e-03    1.0120000000e+05
    9.8598701879e-03    1.0120000000e+05
    9.8697403446e-03    1.0120000000e+05
    9.8798740655e-03    1.0120000000e+05
    9.8897479475e-03    1.0120000000e+05
    9.8998881876e-03    1.0120000000e+05
    9.9097648636e-03    1.0120000000e+05
    9.9199125543e-03    1.0120000000e+05
    9.9298013374e-03    1.0120000000e+05
    9.9399602041e-03    1.0120000000e+05
    9.9498471245e-03    1.0120000000e+05
    9.9597359076e-03    1.0120000000e+05
    9.9699003622e-03    1.0120000000e+05
    9.9797984585e-03    1.0120000000e+05
    9.9899610505e-03    1.0120000000e+05
    9.9998600781e-03    1.0120000000e+05
    1.0009769350e-02    1.0120000000e+05
    1.0019952431e-02    1.0120000000e+05
    1.0029863566e-02    1.0120000000e+05
    1.0039774701e-02    1.0120000000e+05
    1.0049960576e-02    1.0120000000e+05
    1.0059883818e-02    1.0120000000e+05
    1.0069800541e-02    1.0120000000e+05
    1.0079992004e-02    1.0120000000e+05
    1.0089925490e-02    1.0120000000e+05
    1.0099861771e-02    1.0120000000e+05
    1.0109794326e-02    1.0120000000e+05
    1.0119996034e-02    1.0120000000e+05
    1.0129934177e-02    1.0120000000e+05
    1.0139879771e-02    1.0120000000e+05
    1.0149825364e-02    1.0120000000e+05
    1.0159773752e-02    1.0120000000e+05
    1.0169999674e-02    1.0120000000e+05
    1.0179957375e-02    1.0120000000e+05
    1.0189910419e-02    1.0120000000e+05
    1.0199863464e-02    1.0120000000e+05
    1.0209824890e-02    1.0120000000e+05
    1.0219793767e-02    1.0120000000e+05
    1.0229767300e-02    1.0120000000e+05
    1.0239739902e-02    1.0120000000e+05
    1.0249987245e-02    1.0120000000e+05
    1.0259968229e-02    1.0120000000e+05
    1.0269940831e-02    1.0120000000e+05
    1.0279911570e-02    1.0120000000e+05
    1.0289897211e-02    1.0120000000e+05
    1.0299891233e-02    1.0120000000e+05
    1.0309886187e-02    1.0120000000e+05
    1.0319881141e-02    1.0120000000e+05
    1.0329879820e-02    1.0120000000e+05
    1.0339884087e-02    1.0120000000e+05
    1.0349879973e-02    1.0120000000e+05
    1.0359872133e-02    1.0120000000e+05
    1.0369877331e-02    1.0120000000e+05
    1.0379894637e-02    1.0120000000e+05
    1.0389911011e-02    1.0120000000e+05
    1.0399928316e-02    1.0120000000e+05
    1.0409951210e-02    1.0120000000e+05
    1.0419977829e-02    1.0120000000e+05
    1.0429730639e-02    1.0120000000e+05
    1.0439748876e-02    1.0120000000e+05
    1.0449774563e-02    1.0120000000e+05
    1.0459814221e-02    1.0120000000e+05
    1.0469856672e-02    1.0120000000e+05
    1.0479896329e-02    1.0120000000e+05
    1.0489942506e-02    1.0120000000e+05
    1.0499995202e-02    1.0120000000e+05
    1.0509772226e-02    1.0120000000e+05
    1.0519818403e-02    1.0120000000e+05
    1.0529867373e-02    1.0120000000e+05
    1.0539932176e-02    1.0120000000e+05
    1.0549730621e-02    1.0120000000e+05
    1.0559794493e-02    1.0120000000e+05
    1.0569863021e-02    1.0120000000e+05
    1.0579943657e-02    1.0120000000e+05
    1.0589748621e-02    1.0120000000e+05
    1.0599821806e-02    1.0120000000e+05
    1.0609902442e-02    1.0120000000e+05
    1.0619997047e-02    1.0120000000e+05
    1.0629824363e-02    1.0120000000e+05
    1.0639920831e-02    1.0120000000e+05
    1.0649742559e-02    1.0120000000e+05
    1.0659841821e-02    1.0120000000e+05
    1.0669941083e-02    1.0120000000e+05
    1.0679760017e-02    1.0120000000e+05
    1.0689859279e-02    1.0120000000e+05
    1.0699969716e-02    1.0120000000e+05
    1.0709811933e-02    1.0120000000e+05
    1.0719924234e-02    1.0120000000e+05
    1.0729759000e-02    1.0120000000e+05
    1.0739868507e-02    1.0120000000e+05
    1.0749991983e-02    1.0120000000e+05
    1.0759836994e-02    1.0120000000e+05
    1.0769958608e-02    1.0120000000e+05
    1.0779821314e-02    1.0120000000e+05
    1.0789960623e-02    1.0120000000e+05
    1.0799824260e-02    1.0120000000e+05
    1.0809957981e-02    1.0120000000e+05
    1.0819821618e-02    1.0120000000e+05
    1.0829969309e-02    1.0120000000e+05
    1.0839844123e-02    1.0120000000e+05
    1.0849985294e-02    1.0120000000e+05
    1.0859857313e-02    1.0120000000e+05
    1.0869743302e-02    1.0120000000e+05
    1.0879895650e-02    1.0120000000e+05
    1.0889776051e-02    1.0120000000e+05
    1.0899934918e-02    1.0120000000e+05
    1.0909829289e-02    1.0120000000e+05
    1.0919735767e-02    1.0120000000e+05
    1.0929916054e-02    1.0120000000e+05
    1.0939828120e-02    1.0120000000e+05
    1.0949747637e-02    1.0120000000e+05
    1.0959942825e-02    1.0120000000e+05
    1.0969860479e-02    1.0120000000e+05
    1.0979777202e-02    1.0120000000e+05
    1.0989970528e-02    1.0120000000e+05
    1.0999886319e-02    1.0120000000e+05
    1.1009802110e-02    1.0120000000e+05
    1.1019997299e-02    1.0120000000e+05
    1.1029921472e-02    1.0120000000e+05
    1.1039849371e-02    1.0120000000e+05
    1.1049776338e-02    1.0120000000e+05
    1.1059978046e-02    1.0120000000e+05
    1.1069902219e-02    1.0120000000e+05
    1.1079825461e-02    1.0120000000e+05
    1.1089747772e-02    1.0120000000e+05
    1.1099948548e-02    1.0120000000e+05
    1.1109875515e-02    1.0120000000e+05
    1.1119803414e-02    1.0120000000e+05
    1.1129732244e-02    1.0120000000e+05
    1.1139934883e-02    1.0120000000e+05
    1.1149859987e-02    1.0120000000e+05
    1.1159786955e-02    1.0120000000e+05
    1.1169987731e-02    1.0120000000e+05
    1.1179914698e-02    1.0120000000e+05
    1.1189844459e-02    1.0120000000e+05
    1.1199777015e-02    1.0120000000e+05
    1.1209984310e-02    1.0120000000e+05
    1.1219916865e-02    1.0120000000e+05
    1.1229847558e-02    1.0120000000e+05
    1.1239781976e-02    1.0120000000e+05
    1.1249997653e-02    1.0120000000e+05
    1.1259938590e-02    1.0120000000e+05
    1.1269879527e-02    1.0120000000e+05
    1.1279825121e-02    1.0120000000e+05
    1.1289770715e-02    1.0120000000e+05
    1.1299989186e-02    1.0120000000e+05
    1.1309942231e-02    1.0120000000e+05
    1.1319902726e-02    1.0120000000e+05
    1.1329863220e-02    1.0120000000e+05
    1.1339827441e-02    1.0120000000e+05
    1.1349790730e-02    1.0120000000e+05
    1.1359754018e-02    1.0120000000e+05
    1.1369999498e-02    1.0120000000e+05
    1.1379965581e-02    1.0120000000e+05
    1.1389929801e-02    1.0120000000e+05
    1.1399904266e-02    1.0120000000e+05
    1.1409888044e-02    1.0120000000e+05
    1.1419874616e-02    1.0120000000e+05
    1.1429864913e-02    1.0120000000e+05
    1.1439855210e-02    1.0120000000e+05
    1.1449843645e-02    1.0120000000e+05
    1.1459830217e-02    1.0120000000e+05
    1.1469814926e-02    1.0120000000e+05
    1.1479799636e-02    1.0120000000e+05
    1.1489782482e-02    1.0120000000e+05
    1.1499765329e-02    1.0120000000e+05
    1.1509749107e-02    1.0120000000e+05
    1.1519731954e-02    1.0120000000e+05
    1.1529994197e-02    1.0120000000e+05
    1.1539980769e-02    1.0120000000e+05
    1.1549966410e-02    1.0120000000e+05
    1.1559952050e-02    1.0120000000e+05
    1.1569936760e-02    1.0120000000e+05
    1.1579919606e-02    1.0120000000e+05
    1.1589903384e-02    1.0120000000e+05
    1.1599885300e-02    1.0120000000e+05
    1.1609866284e-02    1.0120000000e+05
    1.1619847268e-02    1.0120000000e+05
    1.1629828252e-02    1.0120000000e+05
    1.1639808305e-02    1.0120000000e+05
    1.1649788357e-02    1.0120000000e+05
    1.1659767479e-02    1.0120000000e+05
    1.1669746600e-02    1.0120000000e+05
    1.1679724790e-02    1.0120000000e+05
    1.1689979583e-02    1.0120000000e+05
    1.1699955910e-02    1.0120000000e+05
    1.1709932238e-02    1.0120000000e+05
    1.1719908565e-02    1.0120000000e+05
    1.1729883961e-02    1.0120000000e+05
    1.1739859357e-02    1.0120000000e+05
    1.1749833822e-02    1.0120000000e+05
    1.1759807356e-02    1.0120000000e+05
    1.1769780889e-02    1.0120000000e+05
    1.1779753491e-02    1.0120000000e+05
    1.1789726093e-02    1.0120000000e+05
    1.1799975298e-02    1.0120000000e+05
    1.1809946969e-02    1.0120000000e+05
    1.1819917709e-02    1.0120000000e+05
    1.1829888448e-02    1.0120000000e+05
    1.1839858256e-02    1.0120000000e+05
    1.1849828064e-02    1.0120000000e+05
    1.1859798804e-02    1.0120000000e+05
    1.1869768612e-02    1.0120000000e+05
    1.1879738420e-02    1.0120000000e+05
    1.1889984831e-02    1.0120000000e+05
    1.1899953708e-02    1.0120000000e+05
    1.1909924448e-02    1.0120000000e+05
    1.1919897050e-02    1.0120000000e+05
    1.1929879896e-02    1.0120000000e+05
    1.1939882301e-02    1.0120000000e+05
    1.1949902400e-02    1.0120000000e+05
    1.1959942058e-02    1.0120000000e+05
    1.1969723739e-02    1.0120000000e+05
    1.1979807168e-02    1.0120000000e+05
    1.1989917606e-02    1.0120000000e+05
    1.1999780312e-02    1.0120000000e+05
    1.2009961531e-02    1.0120000000e+05
    1.2019895948e-02    1.0120000000e+05
    1.2029869482e-02    1.0120000000e+05
    1.2039883994e-02    1.0120000000e+05
    1.2049935758e-02    1.0120000000e+05
    1.2059734203e-02    1.0120000000e+05
    1.2069854885e-02    1.0120000000e+05
    1.2079713866e-02    1.0120000000e+05
    1.2089882977e-02    1.0120000000e+05
    1.2099778280e-02    1.0120000000e+05
    1.2109979056e-02    1.0120000000e+05
    1.2119895779e-02    1.0120000000e+05
    1.2129822746e-02    1.0120000000e+05
    1.2139764614e-02    1.0120000000e+05
    1.2149726041e-02    1.0120000000e+05
    1.2159715407e-02    1.0120000000e+05
    1.2169737369e-02    1.0120000000e+05
    1.2179792859e-02    1.0120000000e+05
    1.2189874426e-02    1.0120000000e+05
    1.2199977413e-02    1.0120000000e+05
    1.2209802866e-02    1.0120000000e+05
    1.2219932862e-02    1.0120000000e+05
    1.2229764834e-02    1.0120000000e+05
    1.2239897624e-02    1.0120000000e+05
    1.2249735184e-02    1.0120000000e+05
    1.2259883806e-02    1.0120000000e+05
    1.2269758619e-02    1.0120000000e+05
    1.2279964052e-02    1.0120000000e+05
    1.2289899401e-02    1.0120000000e+05
    1.2299856171e-02    1.0120000000e+05
    1.2309830636e-02    1.0120000000e+05
    1.2319814414e-02    1.0120000000e+05
    1.2329811230e-02    1.0120000000e+05
    1.2339848094e-02    1.0120000000e+05
    1.2349965051e-02    1.0120000000e+05
    1.2359902263e-02    1.0120000000e+05
    1.2369687669e-02    1.0120000000e+05
    1.2379975989e-02    1.0120000000e+05
    1.2389804237e-02    1.0120000000e+05
    1.2399815023e-02    1.0120000000e+05
    1.2409662828e-02    1.0120000000e+05
    1.2419677339e-02    1.0120000000e+05
    1.2429855764e-02    1.0120000000e+05
    1.2439834885e-02    1.0120000000e+05
    1.2449961156e-02    1.0120000000e+05
    1.2459862977e-02    1.0120000000e+05
    1.2469897047e-02    1.0120000000e+05
    1.2479684316e-02    1.0120000000e+05
    1.2489975430e-02    1.0120000000e+05
    1.2499619275e-02    1.0120000000e+05
    1.2509764172e-02    1.0120000000e+05
    1.2519630603e-02    1.0120000000e+05
    1.2529605068e-02    1.0120000000e+05
    1.2539688498e-02    1.0120000000e+05
    1.2549879029e-02    1.0120000000e+05
    1.2559763156e-02    1.0120000000e+05
    1.2569745071e-02    1.0120000000e+05
    1.2579823844e-02    1.0120000000e+05
    1.2589999475e-02    1.0120000000e+05
    1.2599840760e-02    1.0120000000e+05
    1.2609773315e-02    1.0120000000e+05
    1.2619799934e-02    1.0120000000e+05
    1.2629916891e-02    1.0120000000e+05
    1.2639676221e-02    1.0120000000e+05
    1.2649956159e-02    1.0120000000e+05
    1.2659857981e-02    1.0120000000e+05
    1.2669820338e-02    1.0120000000e+05
    1.2679833919e-02    1.0120000000e+05
    1.2689882889e-02    1.0120000000e+05
    1.2699958868e-02    1.0120000000e+05
    1.2709607370e-02    1.0120000000e+05
    1.2719738297e-02    1.0120000000e+05
    1.2729912996e-02    1.0120000000e+05
    1.2739663012e-02    1.0120000000e+05
    1.2749920599e-02    1.0120000000e+05
    1.2759740464e-02    1.0120000000e+05
    1.2769607827e-02    1.0120000000e+05
    1.2779979035e-02    1.0120000000e+05
    1.2789914384e-02    1.0120000000e+05
    1.2799888849e-02    1.0120000000e+05
    1.2809911743e-02    1.0120000000e+05
    1.2819942087e-02    1.0120000000e+05
    1.2829560786e-02    1.0120000000e+05
    1.2839688919e-02    1.0120000000e+05
    1.2849849649e-02    1.0120000000e+05
    1.2859546579e-02    1.0120000000e+05
    1.2869793922e-02    1.0120000000e+05
    1.2879560702e-02    1.0120000000e+05
    1.2889874168e-02    1.0120000000e+05
    1.2899708934e-02    1.0120000000e+05
    1.2909638695e-02    1.0120000000e+05
    1.2919991277e-02    1.0120000000e+05
    1.2929987162e-02    1.0120000000e+05
    1.2939936481e-02    1.0120000000e+05
    1.2949921191e-02    1.0120000000e+05
    1.2959958054e-02    1.0120000000e+05
    1.2969550677e-02    1.0120000000e+05
    1.2979646213e-02    1.0120000000e+05
    1.2989775278e-02    1.0120000000e+05
    1.2999881059e-02    1.0120000000e+05
    1.3009542599e-02    1.0120000000e+05
    1.3019771315e-02    1.0120000000e+05
    1.3029981405e-02    1.0120000000e+05
    1.3039736077e-02    1.0120000000e+05
    1.3049515896e-02    1.0120000000e+05
    1.3059861958e-02    1.0120000000e+05
    1.3069709763e-02    1.0120000000e+05
    1.3079514727e-02    1.0120000000e+05
    1.3089907356e-02    1.0120000000e+05
    1.3099877164e-02    1.0120000000e+05
    1.3109839521e-02    1.0120000000e+05
    1.3119840994e-02    1.0120000000e+05
    1.3129826635e-02    1.0120000000e+05
    1.3139784336e-02    1.0120000000e+05
    1.3149808161e-02    1.0120000000e+05
    1.3159870170e-02    1.0120000000e+05
    1.3169961981e-02    1.0120000000e+05
    1.3179498725e-02    1.0120000000e+05
    1.3189673424e-02    1.0120000000e+05
    1.3199841604e-02    1.0120000000e+05
    1.3209987432e-02    1.0120000000e+05
    1.3219662942e-02    1.0120000000e+05
    1.3229851611e-02    1.0120000000e+05
    1.3239572756e-02    1.0120000000e+05
    1.3249808922e-02    1.0120000000e+05
    1.3259570114e-02    1.0120000000e+05
    1.3269845396e-02    1.0120000000e+05
    1.3279608451e-02    1.0120000000e+05
    1.3289927505e-02    1.0120000000e+05
    1.3299680315e-02    1.0120000000e+05
    1.3309971429e-02    1.0120000000e+05
    1.3319662772e-02    1.0120000000e+05
    1.3329847716e-02    1.0120000000e+05
    1.3339839876e-02    1.0120000000e+05
    1.3349640183e-02    1.0120000000e+05
    1.3359664008e-02    1.0120000000e+05
    1.3369862922e-02    1.0120000000e+05
    1.3379743323e-02    1.0120000000e+05
    1.3389761560e-02    1.0120000000e+05
    1.3399884105e-02    1.0120000000e+05
    1.3409657404e-02    1.0120000000e+05
    1.3419897296e-02    1.0120000000e+05
    1.3429746963e-02    1.0120000000e+05
    1.3439957984e-02    1.0120000000e+05
    1.3449735940e-02    1.0120000000e+05
    1.3459766284e-02    1.0120000000e+05
    1.3469955884e-02    1.0120000000e+05
    1.3479907997e-02    1.0120000000e+05
    1.3489857316e-02    1.0120000000e+05
    1.3499958441e-02    1.0120000000e+05
    1.3509786688e-02    1.0120000000e+05
    1.3519864529e-02    1.0120000000e+05
    1.3529998250e-02    1.0120000000e+05
    1.3539847918e-02    1.0120000000e+05
    1.3549877331e-02    1.0120000000e+05
    1.3559909537e-02    1.0120000000e+05
    1.3569911011e-02    1.0120000000e+05
    1.3579909690e-02    1.0120000000e+05
    1.3589917682e-02    1.0120000000e+05
    1.3599966653e-02    1.0120000000e+05
    1.3609830290e-02    1.0120000000e+05
    1.3619867153e-02    1.0120000000e+05
    1.3629833236e-02    1.0120000000e+05
    1.3639906421e-02    1.0120000000e+05
    1.3649867848e-02    1.0120000000e+05
    1.3659872115e-02    1.0120000000e+05
    1.3669898733e-02    1.0120000000e+05
    1.3679895550e-02    1.0120000000e+05
    1.3689821586e-02    1.0120000000e+05
    1.3699859381e-02    1.0120000000e+05
    1.3709997758e-02    1.0120000000e+05
    1.3719786890e-02    1.0120000000e+05
    1.3729855418e-02    1.0120000000e+05
    1.3739979826e-02    1.0120000000e+05
    1.3749944977e-02    1.0120000000e+05
    1.3759958558e-02    1.0120000000e+05
    1.3769791462e-02    1.0120000000e+05
    1.3779885136e-02    1.0120000000e+05
    1.3789801858e-02    1.0120000000e+05
    1.3799967244e-02    1.0120000000e+05
    1.3809943572e-02    1.0120000000e+05
    1.3819952495e-02    1.0120000000e+05
    1.3829985633e-02    1.0120000000e+05
    1.3839824125e-02    1.0120000000e+05
    1.3849906623e-02    1.0120000000e+05
    1.3859793544e-02    1.0120000000e+05
    1.3869923539e-02    1.0120000000e+05
    1.3879859820e-02    1.0120000000e+05
    1.3889797963e-02    1.0120000000e+05
    1.3899780810e-02    1.0120000000e+05
    1.3909977861e-02    1.0120000000e+05
    1.3919770718e-02    1.0120000000e+05
    1.3929783367e-02    1.0120000000e+05
    1.3939818367e-02    1.0120000000e+05
    1.3949880376e-02    1.0120000000e+05
    1.3959965669e-02    1.0120000000e+05
    1.3969828375e-02    1.0120000000e+05
    1.3979940675e-02    1.0120000000e+05
    1.3989863917e-02    1.0120000000e+05
    1.3999768533e-02    1.0120000000e+05
    1.4009940438e-02    1.0120000000e+05
    1.4019906521e-02    1.0120000000e+05
    1.4029873535e-02    1.0120000000e+05
    1.4039854519e-02    1.0120000000e+05
    1.4049877413e-02    1.0120000000e+05
    1.4059900306e-02    1.0120000000e+05
    1.4069925062e-02    1.0120000000e+05
    1.4079996385e-02    1.0120000000e+05
    1.4089830220e-02    1.0120000000e+05
    1.4099898748e-02    1.0120000000e+05
    1.4109763317e-02    1.0120000000e+05
    1.4119887725e-02    1.0120000000e+05
    1.4129759744e-02    1.0120000000e+05
    1.4139899053e-02    1.0120000000e+05
    1.4149828814e-02    1.0120000000e+05
    1.4159980230e-02    1.0120000000e+05
    1.4169912785e-02    1.0120000000e+05
    1.4179881662e-02    1.0120000000e+05
    1.4189835638e-02    1.0120000000e+05
    1.4199792407e-02    1.0120000000e+05
    1.4209790155e-02    1.0120000000e+05
    1.4219792560e-02    1.0120000000e+05
    1.4229785651e-02    1.0120000000e+05
    1.4239803888e-02    1.0120000000e+05
    1.4249843545e-02    1.0120000000e+05
    1.4259878546e-02    1.0120000000e+05
    1.4269928448e-02    1.0120000000e+05
    1.4279997908e-02    1.0120000000e+05
    1.4289815910e-02    1.0120000000e+05
    1.4299898408e-02    1.0120000000e+05
    1.4309757389e-02    1.0120000000e+05
    1.4319861308e-02    1.0120000000e+05
    1.4329964295e-02    1.0120000000e+05
    1.4339849353e-02    1.0120000000e+05
    1.4349992387e-02    1.0120000000e+05
    1.4359883033e-02    1.0120000000e+05
    1.4369787648e-02    1.0120000000e+05
    1.4379954897e-02    1.0120000000e+05
    1.4389879070e-02    1.0120000000e+05
    1.4399810694e-02    1.0120000000e+05
    1.4409997500e-02    1.0120000000e+05
    1.4419945888e-02    1.0120000000e+05
    1.4429905452e-02    1.0120000000e+05
    1.4439878054e-02    1.0120000000e+05
    1.4449853450e-02    1.0120000000e+05
    1.4459829777e-02    1.0120000000e+05
    1.4469821006e-02    1.0120000000e+05
    1.4479825273e-02    1.0120000000e+05
    1.4489832334e-02    1.0120000000e+05
    1.4499839395e-02    1.0120000000e+05
    1.4509860426e-02    1.0120000000e+05
    1.4519892633e-02    1.0120000000e+05
    1.4529928565e-02    1.0120000000e+05
    1.4539971016e-02    1.0120000000e+05
    1.4549766667e-02    1.0120000000e+05
    1.4559822157e-02    1.0120000000e+05
    1.4569891617e-02    1.0120000000e+05
    1.4579959214e-02    1.0120000000e+05
    1.4589782804e-02    1.0120000000e+05
    1.4599863440e-02    1.0120000000e+05
    1.4609956183e-02    1.0120000000e+05
    1.4619804919e-02    1.0120000000e+05
    1.4629899524e-02    1.0120000000e+05
    1.4639753848e-02    1.0120000000e+05
    1.4649870805e-02    1.0120000000e+05
    1.4659994282e-02    1.0120000000e+05
    1.4669868164e-02    1.0120000000e+05
    1.4679992571e-02    1.0120000000e+05
    1.4689875767e-02    1.0120000000e+05
    1.4699772000e-02    1.0120000000e+05
    1.4709919691e-02    1.0120000000e+05
    1.4719820581e-02    1.0120000000e+05
    1.4729973860e-02    1.0120000000e+05
    1.4739886858e-02    1.0120000000e+05
    1.4749806374e-02    1.0120000000e+05
    1.4759976417e-02    1.0120000000e+05
    1.4769899659e-02    1.0120000000e+05
    1.4779823832e-02    1.0120000000e+05
    1.4789760113e-02    1.0120000000e+05
    1.4799955301e-02    1.0120000000e+05
    1.4809893444e-02    1.0120000000e+05
    1.4819844626e-02    1.0120000000e+05
    1.4829799533e-02    1.0120000000e+05
    1.4839758165e-02    1.0120000000e+05
    1.4849972911e-02    1.0120000000e+05
    1.4859925956e-02    1.0120000000e+05
    1.4869897626e-02    1.0120000000e+05
    1.4879872091e-02    1.0120000000e+05
    1.4889851213e-02    1.0120000000e+05
    1.4899831265e-02    1.0120000000e+05
    1.4909808524e-02    1.0120000000e+05
    1.4919795096e-02    1.0120000000e+05
    1.4929782599e-02    1.0120000000e+05
    1.4939772896e-02    1.0120000000e+05
    1.4949765056e-02    1.0120000000e+05
    1.4959758148e-02    1.0120000000e+05
    1.4969759621e-02    1.0120000000e+05
    1.4979764819e-02    1.0120000000e+05
    1.4989771880e-02    1.0120000000e+05
    1.4999783598e-02    1.0120000000e+05
    1.5009795316e-02    1.0120000000e+05
    1.5019807033e-02    1.0120000000e+05
    1.5029817820e-02    1.0120000000e+05
    1.5039827675e-02    1.0120000000e+05
    1.5049837530e-02    1.0120000000e+05
    1.5059847385e-02    1.0120000000e+05
    1.5069857240e-02    1.0120000000e+05
    1.5079868957e-02    1.0120000000e+05
    1.5089881606e-02    1.0120000000e+05
    1.5099895187e-02    1.0120000000e+05
    1.5109909698e-02    1.0120000000e+05
    1.5119926073e-02    1.0120000000e+05
    1.5129942447e-02    1.0120000000e+05
    1.5139957890e-02    1.0120000000e+05
    1.5149974264e-02    1.0120000000e+05
    1.5159989707e-02    1.0120000000e+05
    1.5169749036e-02    1.0120000000e+05
    1.5179764479e-02    1.0120000000e+05
    1.5189779922e-02    1.0120000000e+05
    1.5199795365e-02    1.0120000000e+05
    1.5209812671e-02    1.0120000000e+05
    1.5219829045e-02    1.0120000000e+05
    1.5229847282e-02    1.0120000000e+05
    1.5239865519e-02    1.0120000000e+05
    1.5249884687e-02    1.0120000000e+05
    1.5259902924e-02    1.0120000000e+05
    1.5269922093e-02    1.0120000000e+05
    1.5279942192e-02    1.0120000000e+05
    1.5289962292e-02    1.0120000000e+05
    1.5299983323e-02    1.0120000000e+05
    1.5309748240e-02    1.0120000000e+05
    1.5319771133e-02    1.0120000000e+05
    1.5329794027e-02    1.0120000000e+05
    1.5339817852e-02    1.0120000000e+05
    1.5349842608e-02    1.0120000000e+05
    1.5359867364e-02    1.0120000000e+05
    1.5369893052e-02    1.0120000000e+05
    1.5379918739e-02    1.0120000000e+05
    1.5389944427e-02    1.0120000000e+05
    1.5399971046e-02    1.0120000000e+05
    1.5409998596e-02    1.0120000000e+05
    1.5419768170e-02    1.0120000000e+05
    1.5429795720e-02    1.0120000000e+05
    1.5439822339e-02    1.0120000000e+05
    1.5449849889e-02    1.0120000000e+05
    1.5459877439e-02    1.0120000000e+05
    1.5469904989e-02    1.0120000000e+05
    1.5479931608e-02    1.0120000000e+05
    1.5489959158e-02    1.0120000000e+05
    1.5499987639e-02    1.0120000000e+05
    1.5509760939e-02    1.0120000000e+05
    1.5519793145e-02    1.0120000000e+05
    1.5529829077e-02    1.0120000000e+05
    1.5539869666e-02    1.0120000000e+05
    1.5549912117e-02    1.0120000000e+05
    1.5559952706e-02    1.0120000000e+05
    1.5569993295e-02    1.0120000000e+05
    1.5579774976e-02    1.0120000000e+05
    1.5589813702e-02    1.0120000000e+05
    1.5599852428e-02    1.0120000000e+05
    1.5609890223e-02    1.0120000000e+05
    1.5619930811e-02    1.0120000000e+05
    1.5629973263e-02    1.0120000000e+05
    1.5639759600e-02    1.0120000000e+05
    1.5649802983e-02    1.0120000000e+05
    1.5659844503e-02    1.0120000000e+05
    1.5669887885e-02    1.0120000000e+05
    1.5679929405e-02    1.0120000000e+05
    1.5689974651e-02    1.0120000000e+05
    1.5699760988e-02    1.0120000000e+05
    1.5709806234e-02    1.0120000000e+05
    1.5719851479e-02    1.0120000000e+05
    1.5729894862e-02    1.0120000000e+05
    1.5739940107e-02    1.0120000000e+05
    1.5749985352e-02    1.0120000000e+05
    1.5759771690e-02    1.0120000000e+05
    1.5769816935e-02    1.0120000000e+05
    1.5779862180e-02    1.0120000000e+05
    1.5789907426e-02    1.0120000000e+05
    1.5799952671e-02    1.0120000000e+05
    1.5809999779e-02    1.0120000000e+05
    1.5819786116e-02    1.0120000000e+05
    1.5829833224e-02    1.0120000000e+05
    1.5839878470e-02    1.0120000000e+05
    1.5849923715e-02    1.0120000000e+05
    1.5859968960e-02    1.0120000000e+05
    1.5869757161e-02    1.0120000000e+05
    1.5879804268e-02    1.0120000000e+05
    1.5889849514e-02    1.0120000000e+05
    1.5899896622e-02    1.0120000000e+05
    1.5909941867e-02    1.0120000000e+05
    1.5919987112e-02    1.0120000000e+05
    1.5929777175e-02    1.0120000000e+05
    1.5939822420e-02    1.0120000000e+05
    1.5949869528e-02    1.0120000000e+05
    1.5959916636e-02    1.0120000000e+05
    1.5969961882e-02    1.0120000000e+05
    1.5979750082e-02    1.0120000000e+05
    1.5989797190e-02    1.0120000000e+05
    1.5999844298e-02    1.0120000000e+05
    1.6009891406e-02    1.0120000000e+05
    1.6019938514e-02    1.0120000000e+05
    1.6029983759e-02    1.0120000000e+05
    1.6039773822e-02    1.0120000000e+05
    1.6049820930e-02    1.0120000000e+05
    1.6059868038e-02    1.0120000000e+05
    1.6069913283e-02    1.0120000000e+05
    1.6079960391e-02    1.0120000000e+05
    1.6089750454e-02    1.0120000000e+05
    1.6099797562e-02    1.0120000000e+05
    1.6109844670e-02    1.0120000000e+05
    1.6119891778e-02    1.0120000000e+05
    1.6129938886e-02    1.0120000000e+05
    1.6139985994e-02    1.0120000000e+05
    1.6149774194e-02    1.0120000000e+05
    1.6159821302e-02    1.0120000000e+05
    1.6169868410e-02    1.0120000000e+05
    1.6179917380e-02    1.0120000000e+05
    1.6189964488e-02    1.0120000000e+05
    1.6199754551e-02    1.0120000000e+05
    1.6209801659e-02    1.0120000000e+05
    1.6219848767e-02    1.0120000000e+05
    1.6229895875e-02    1.0120000000e+05
    1.6239944845e-02    1.0120000000e+05
    1.6249991953e-02    1.0120000000e+05
    1.6259782016e-02    1.0120000000e+05
    1.6269829124e-02    1.0120000000e+05
    1.6279876232e-02    1.0120000000e+05
    1.6289925203e-02    1.0120000000e+05
    1.6299972311e-02    1.0120000000e+05
    1.6309762374e-02    1.0120000000e+05
    1.6319811344e-02    1.0120000000e+05
    1.6329858452e-02    1.0120000000e+05
    1.6339905560e-02    1.0120000000e+05
    1.6349954531e-02    1.0120000000e+05
    1.6359744594e-02    1.0120000000e+05
    1.6369793564e-02    1.0120000000e+05
    1.6379840672e-02    1.0120000000e+05
    1.6389889643e-02    1.0120000000e+05
    1.6399936751e-02    1.0120000000e+05
    1.6409985721e-02    1.0120000000e+05
    1.6419775784e-02    1.0120000000e+05
    1.6429824755e-02    1.0120000000e+05
    1.6439873725e-02    1.0120000000e+05
    1.6449922696e-02    1.0120000000e+05
    1.6459969804e-02    1.0120000000e+05
    1.6469761729e-02    1.0120000000e+05
    1.6479810700e-02    1.0120000000e+05
    1.6489859670e-02    1.0120000000e+05
    1.6499908641e-02    1.0120000000e+05
    1.6509957612e-02    1.0120000000e+05
    1.6519749537e-02    1.0120000000e+05
    1.6529798508e-02    1.0120000000e+05
    1.6539847478e-02    1.0120000000e+05
    1.6549896449e-02    1.0120000000e+05
    1.6559945419e-02    1.0120000000e+05
    1.6569996253e-02    1.0120000000e+05
    1.6579788178e-02    1.0120000000e+05
    1.6589837149e-02    1.0120000000e+05
    1.6599886119e-02    1.0120000000e+05
    1.6609936953e-02    1.0120000000e+05
    1.6619985923e-02    1.0120000000e+05
    1.6629779711e-02    1.0120000000e+05
    1.6639830545e-02    1.0120000000e+05
    1.6649881378e-02    1.0120000000e+05
    1.6659932211e-02    1.0120000000e+05
    1.6669983044e-02    1.0120000000e+05
    1.6679776832e-02    1.0120000000e+05
    1.6689827666e-02    1.0120000000e+05
    1.6699878499e-02    1.0120000000e+05
    1.6709929332e-02    1.0120000000e+05
    1.6719982028e-02    1.0120000000e+05
    1.6729775816e-02    1.0120000000e+05
    1.6739826649e-02    1.0120000000e+05
    1.6749879345e-02    1.0120000000e+05
    1.6759930179e-02    1.0120000000e+05
    1.6769982874e-02    1.0120000000e+05
    1.6779776663e-02    1.0120000000e+05
    1.6789829358e-02    1.0120000000e+05
    1.6799882054e-02    1.0120000000e+05
    1.6809932888e-02    1.0120000000e+05
    1.6819985583e-02    1.0120000000e+05
    1.6829781234e-02    1.0120000000e+05
    1.6839833930e-02    1.0120000000e+05
    1.6849886626e-02    1.0120000000e+05
    1.6859941185e-02    1.0120000000e+05
    1.6869993880e-02    1.0120000000e+05
    1.6879789531e-02    1.0120000000e+05
    1.6889842227e-02    1.0120000000e+05
    1.6899896786e-02    1.0120000000e+05
    1.6909949481e-02    1.0120000000e+05
    1.6919746995e-02    1.0120000000e+05
    1.6929801553e-02    1.0120000000e+05
    1.6939856112e-02    1.0120000000e+05
    1.6949910671e-02    1.0120000000e+05
    1.6959963366e-02    1.0120000000e+05
    1.6969760880e-02    1.0120000000e+05
    1.6979815438e-02    1.0120000000e+05
    1.6989869997e-02    1.0120000000e+05
    1.6999924555e-02    1.0120000000e+05
    1.7009980977e-02    1.0120000000e+05
    1.7019778490e-02    1.0120000000e+05
    1.7029833049e-02    1.0120000000e+05
    1.7039889470e-02    1.0120000000e+05
    1.7049945891e-02    1.0120000000e+05
    1.7059743404e-02    1.0120000000e+05
    1.7069799826e-02    1.0120000000e+05
    1.7079854384e-02    1.0120000000e+05
    1.7089910805e-02    1.0120000000e+05
    1.7099967226e-02    1.0120000000e+05
    1.7109766603e-02    1.0120000000e+05
    1.7119823024e-02    1.0120000000e+05
    1.7129879445e-02    1.0120000000e+05
    1.7139937729e-02    1.0120000000e+05
    1.7149994150e-02    1.0120000000e+05
    1.7159793526e-02    1.0120000000e+05
    1.7169849947e-02    1.0120000000e+05
    1.7179908231e-02    1.0120000000e+05
    1.7189964652e-02    1.0120000000e+05
    1.7199765891e-02    1.0120000000e+05
    1.7209824175e-02    1.0120000000e+05
    1.7219880596e-02    1.0120000000e+05
    1.7229938880e-02    1.0120000000e+05
    1.7239997163e-02    1.0120000000e+05
    1.7249798402e-02    1.0120000000e+05
    1.7259856686e-02    1.0120000000e+05
    1.7269914970e-02    1.0120000000e+05
    1.7279975116e-02    1.0120000000e+05
    1.7289774492e-02    1.0120000000e+05
    1.7299834639e-02    1.0120000000e+05
    1.7309892923e-02    1.0120000000e+05
    1.7319953069e-02    1.0120000000e+05
    1.7329754308e-02    1.0120000000e+05
    1.7339814454e-02    1.0120000000e+05
    1.7349872738e-02    1.0120000000e+05
    1.7359932885e-02    1.0120000000e+05
    1.7369993031e-02    1.0120000000e+05
    1.7379794270e-02    1.0120000000e+05
    1.7389854416e-02    1.0120000000e+05
    1.7399914563e-02    1.0120000000e+05
    1.7409974709e-02    1.0120000000e+05
    1.7419777811e-02    1.0120000000e+05
    1.7429837957e-02    1.0120000000e+05
    1.7439899966e-02    1.0120000000e+05
    1.7449960113e-02    1.0120000000e+05
    1.7459763214e-02    1.0120000000e+05
    1.7469823360e-02    1.0120000000e+05
    1.7479885370e-02    1.0120000000e+05
    1.7489945516e-02    1.0120000000e+05
    1.7499748617e-02    1.0120000000e+05
    1.7509810627e-02    1.0120000000e+05
    1.7519872636e-02    1.0120000000e+05
    1.7529934645e-02    1.0120000000e+05
    1.7539996654e-02    1.0120000000e+05
    1.7549799755e-02    1.0120000000e+05
    1.7559861764e-02    1.0120000000e+05
    1.7569923773e-02    1.0120000000e+05
    1.7579985783e-02    1.0120000000e+05
    1.7589790747e-02    1.0120000000e+05
    1.7599852756e-02    1.0120000000e+05
    1.7609914765e-02    1.0120000000e+05
    1.7619978637e-02    1.0120000000e+05
    1.7629783601e-02    1.0120000000e+05
    1.7639845610e-02    1.0120000000e+05
    1.7649909481e-02    1.0120000000e+05
    1.7659971491e-02    1.0120000000e+05
    1.7669776455e-02    1.0120000000e+05
    1.7679840326e-02    1.0120000000e+05
    1.7689904198e-02    1.0120000000e+05
    1.7699968070e-02    1.0120000000e+05
    1.7709773034e-02    1.0120000000e+05
    1.7719836906e-02    1.0120000000e+05
    1.7729900777e-02    1.0120000000e+05
    1.7739964649e-02    1.0120000000e+05
    1.7749771476e-02    1.0120000000e+05
    1.7759835348e-02    1.0120000000e+05
    1.7769899219e-02    1.0120000000e+05
    1.7779963091e-02    1.0120000000e+05
    1.7789769918e-02    1.0120000000e+05
    1.7799833789e-02    1.0120000000e+05
    1.7809899524e-02    1.0120000000e+05
    1.7819963396e-02    1.0120000000e+05
    1.7829770222e-02    1.0120000000e+05
    1.7839835957e-02    1.0120000000e+05
    1.7849901691e-02    1.0120000000e+05
    1.7859965563e-02    1.0120000000e+05
    1.7869774252e-02    1.0120000000e+05
    1.7879838124e-02    1.0120000000e+05
    1.7889903858e-02    1.0120000000e+05
    1.7899969593e-02    1.0120000000e+05
    1.7909778282e-02    1.0120000000e+05
    1.7919844016e-02    1.0120000000e+05
    1.7929909751e-02    1.0120000000e+05
    1.7939975485e-02    1.0120000000e+05
    1.7949784175e-02    1.0120000000e+05
    1.7959849909e-02    1.0120000000e+05
    1.7969915643e-02    1.0120000000e+05
    1.7979981378e-02    1.0120000000e+05
    1.7989790067e-02    1.0120000000e+05
    1.7999857664e-02    1.0120000000e+05
    1.8009923398e-02    1.0120000000e+05
    1.8019990996e-02    1.0120000000e+05
    1.8029799685e-02    1.0120000000e+05
    1.8039865419e-02    1.0120000000e+05
    1.8049933016e-02    1.0120000000e+05
    1.8059741706e-02    1.0120000000e+05
    1.8069809303e-02    1.0120000000e+05
    1.8079876900e-02    1.0120000000e+05
    1.8089944497e-02    1.0120000000e+05
    1.8099753186e-02    1.0120000000e+05
    1.8109820783e-02    1.0120000000e+05
    1.8119888380e-02    1.0120000000e+05
    1.8129955977e-02    1.0120000000e+05
    1.8139764667e-02    1.0120000000e+05
    1.8149834126e-02    1.0120000000e+05
    1.8159901723e-02    1.0120000000e+05
    1.8169969320e-02    1.0120000000e+05
    1.8179779872e-02    1.0120000000e+05
    1.8189847469e-02    1.0120000000e+05
    1.8199915066e-02    1.0120000000e+05
    1.8209984526e-02    1.0120000000e+05
    1.8219795078e-02    1.0120000000e+05
    1.8229862675e-02    1.0120000000e+05
    1.8239932135e-02    1.0120000000e+05
    1.8249999732e-02    1.0120000000e+05
    1.8259810284e-02    1.0120000000e+05
    1.8269879743e-02    1.0120000000e+05
    1.8279947340e-02    1.0120000000e+05
    1.8289757892e-02    1.0120000000e+05
    1.8299827352e-02    1.0120000000e+05
    1.8309896812e-02    1.0120000000e+05
    1.8319966272e-02    1.0120000000e+05
    1.8329776824e-02    1.0120000000e+05
    1.8339846283e-02    1.0120000000e+05
    1.8349915743e-02    1.0120000000e+05
    1.8359985203e-02    1.0120000000e+05
    1.8369795755e-02    1.0120000000e+05
    1.8379865214e-02    1.0120000000e+05
    1.8389934674e-02    1.0120000000e+05
    1.8399747089e-02    1.0120000000e+05
    1.8409816548e-02    1.0120000000e+05
    1.8419886008e-02    1.0120000000e+05
    1.8429955468e-02    1.0120000000e+05
    1.8439767882e-02    1.0120000000e+05
    1.8449837342e-02    1.0120000000e+05
    1.8459906802e-02    1.0120000000e+05
    1.8469978124e-02    1.0120000000e+05
    1.8479788676e-02    1.0120000000e+05
    1.8489859998e-02    1.0120000000e+05
    1.8499929458e-02    1.0120000000e+05
    1.8509741873e-02    1.0120000000e+05
    1.8519811332e-02    1.0120000000e+05
    1.8529882655e-02    1.0120000000e+05
    1.8539953977e-02    1.0120000000e+05
    1.8549764529e-02    1.0120000000e+05
    1.8559835851e-02    1.0120000000e+05
    1.8569907174e-02    1.0120000000e+05
    1.8579976633e-02    1.0120000000e+05
    1.8589789048e-02    1.0120000000e+05
    1.8599860370e-02    1.0120000000e+05
    1.8609931692e-02    1.0120000000e+05
    1.8619744107e-02    1.0120000000e+05
    1.8629815429e-02    1.0120000000e+05
    1.8639884889e-02    1.0120000000e+05
    1.8649956211e-02    1.0120000000e+05
    1.8659768626e-02    1.0120000000e+05
    1.8669839948e-02    1.0120000000e+05
    1.8679911271e-02    1.0120000000e+05
    1.8689982593e-02    1.0120000000e+05
    1.8699795008e-02    1.0120000000e+05
    1.8709866330e-02    1.0120000000e+05
    1.8719937652e-02    1.0120000000e+05
    1.8729750067e-02    1.0120000000e+05
    1.8739821389e-02    1.0120000000e+05
    1.8749892712e-02    1.0120000000e+05
    1.8759964034e-02    1.0120000000e+05
    1.8769776449e-02    1.0120000000e+05
    1.8779847771e-02    1.0120000000e+05
    1.8789919093e-02    1.0120000000e+05
    1.8799990416e-02    1.0120000000e+05
    1.8809804693e-02    1.0120000000e+05
    1.8819876015e-02    1.0120000000e+05
    1.8829947338e-02    1.0120000000e+05
    1.8839759752e-02    1.0120000000e+05
    1.8849832937e-02    1.0120000000e+05
    1.8859904259e-02    1.0120000000e+05
    1.8869975582e-02    1.0120000000e+05
    1.8879787996e-02    1.0120000000e+05
    1.8889859319e-02    1.0120000000e+05
    1.8899932504e-02    1.0120000000e+05
    1.8909744918e-02    1.0120000000e+05
    1.8919816241e-02    1.0120000000e+05
    1.8929887563e-02    1.0120000000e+05
    1.8939960748e-02    1.0120000000e+05
    1.8949773163e-02    1.0120000000e+05
    1.8959844485e-02    1.0120000000e+05
    1.8969917670e-02    1.0120000000e+05
    1.8979988992e-02    1.0120000000e+05
    1.8989801407e-02    1.0120000000e+05
    1.8999874592e-02    1.0120000000e+05
    1.9009945914e-02    1.0120000000e+05
    1.9019758329e-02    1.0120000000e+05
    1.9029831514e-02    1.0120000000e+05
    1.9039902836e-02    1.0120000000e+05
    1.9049974158e-02    1.0120000000e+05
    1.9059788436e-02    1.0120000000e+05
    1.9069859758e-02    1.0120000000e+05
    1.9079931080e-02    1.0120000000e+05
    1.9089745358e-02    1.0120000000e+05
    1.9099816680e-02    1.0120000000e+05
    1.9109888002e-02    1.0120000000e+05
    1.9119961187e-02    1.0120000000e+05
    1.9129773602e-02    1.0120000000e+05
    1.9139846787e-02    1.0120000000e+05
    1.9149918109e-02    1.0120000000e+05
    1.9159989432e-02    1.0120000000e+05
    1.9169803709e-02    1.0120000000e+05
    1.9179875031e-02    1.0120000000e+05
    1.9189946353e-02    1.0120000000e+05
    1.9199760631e-02    1.0120000000e+05
    1.9209831953e-02    1.0120000000e+05
    1.9219905138e-02    1.0120000000e+05
    1.9229976460e-02    1.0120000000e+05
    1.9239788875e-02    1.0120000000e+05
    1.9249862060e-02    1.0120000000e+05
    1.9259933382e-02    1.0120000000e+05
    1.9269747660e-02    1.0120000000e+05
    1.9279818982e-02    1.0120000000e+05
    1.9289890304e-02    1.0120000000e+05
    1.9299963489e-02    1.0120000000e+05
    1.9309775904e-02    1.0120000000e+05
    1.9319847226e-02    1.0120000000e+05
    1.9329920411e-02    1.0120000000e+05
    1.9339991733e-02    1.0120000000e+05
    1.9349806011e-02    1.0120000000e+05
    1.9359877333e-02    1.0120000000e+05
    1.9369948655e-02    1.0120000000e+05
    1.9379762933e-02    1.0120000000e+05
    1.9389834255e-02    1.0120000000e+05
    1.9399905577e-02    1.0120000000e+05
    1.9409978762e-02    1.0120000000e+05
    1.9419791177e-02    1.0120000000e+05
    1.9429862499e-02    1.0120000000e+05
    1.9439935684e-02    1.0120000000e+05
[...]
    1.3513983786e-01    1.0068071094e+05
    1.3514998555e-01    1.0066652344e+05
    1.3515983522e-01    1.0065274219e+05
    1.3516998291e-01    1.0063853906e+05
    1.3517983258e-01    1.0062475000e+05
    1.3518998027e-01    1.0061053125e+05
    1.3519984484e-01    1.0059671875e+05
    1.3520999253e-01    1.0058247656e+05
    1.3521984220e-01    1.0056866406e+05
    1.3522998989e-01    1.0055442969e+05
    1.3523983955e-01    1.0054060156e+05
    1.3524998724e-01    1.0052635156e+05
    1.3525985181e-01    1.0051252344e+05
    1.3526999950e-01    1.0049825781e+05
    1.3527984917e-01    1.0048441406e+05
    1.3528999686e-01    1.0047014844e+05
    1.3529984653e-01    1.0045628906e+05
    1.3530969620e-01    1.0044244531e+05
    1.3531985879e-01    1.0042816406e+05
    1.3532970846e-01    1.0041431250e+05
    1.3533985615e-01    1.0040003906e+05
    1.3534970582e-01    1.0038618750e+05
    1.3535985351e-01    1.0037189844e+05
    1.3536971807e-01    1.0035803906e+05
    1.3537986577e-01    1.0034377344e+05
    1.3538971543e-01    1.0032989844e+05
    1.3539986312e-01    1.0031560156e+05
    1.3540971279e-01    1.0030174219e+05
    1.3541986048e-01    1.0028746094e+05
    1.3542972505e-01    1.0027358594e+05
    1.3543987274e-01    1.0025928906e+05
    1.3544972241e-01    1.0024542969e+05
    1.3545987010e-01    1.0023114844e+05
    1.3546971977e-01    1.0021727344e+05
    1.3547986746e-01    1.0020297656e+05
    1.3548973203e-01    1.0018912500e+05
    1.3549987972e-01    1.0017483594e+05
    1.3550972939e-01    1.0016096875e+05
    1.3551987708e-01    1.0014668750e+05
    1.3552972674e-01    1.0013282031e+05
    1.3553987443e-01    1.0011853906e+05
    1.3554973900e-01    1.0010467969e+05
    1.3555988669e-01    1.0009039844e+05
    1.3556973636e-01    1.0007653906e+05
    1.3557988405e-01    1.0006227344e+05
    1.3558973372e-01    1.0004840625e+05
    1.3559989631e-01    1.0003413281e+05
    1.3560974598e-01    1.0002028125e+05
    1.3561989367e-01    1.0000600781e+05
    1.3562974334e-01    9.9992164062e+04
    1.3563989103e-01    9.9977898438e+04
    1.3564974070e-01    9.9964054688e+04
    1.3565990329e-01    9.9949789062e+04
    1.3566975296e-01    9.9935960938e+04
    1.3567990065e-01    9.9921695312e+04
    1.3568975031e-01    9.9907867188e+04
    1.3569989800e-01    9.9893601562e+04
    1.3570974767e-01    9.9879781250e+04
    1.3571991026e-01    9.9865539062e+04
    1.3572975993e-01    9.9851710938e+04
    1.3573990762e-01    9.9837476562e+04
    1.3574975729e-01    9.9823656250e+04
    1.3575990498e-01    9.9809414062e+04
    1.3576975465e-01    9.9795601562e+04
    1.3577991724e-01    9.9781382812e+04
    1.3578976691e-01    9.9767585938e+04
    1.3579991460e-01    9.9753351562e+04
    1.3580976427e-01    9.9739554688e+04
    1.3581991196e-01    9.9725343750e+04
    1.3582976162e-01    9.9711539062e+04
    1.3583992422e-01    9.9697343750e+04
    1.3584977388e-01    9.9683554688e+04
    1.3585992157e-01    9.9669351562e+04
    1.3586977124e-01    9.9655570312e+04
    1.3587991893e-01    9.9641375000e+04
    1.3588976860e-01    9.9627593750e+04
    1.3589993119e-01    9.9613406250e+04
    1.3590978086e-01    9.9599632812e+04
    1.3591992855e-01    9.9585460938e+04
    1.3592977822e-01    9.9571687500e+04
    1.3593992591e-01    9.9557507812e+04
    1.3594979048e-01    9.9543750000e+04
    1.3595993817e-01    9.9529585938e+04
    1.3596978784e-01    9.9515835938e+04
    1.3597993553e-01    9.9501656250e+04
    1.3598978519e-01    9.9487914062e+04
    1.3599993289e-01    9.9473750000e+04
    1.3600979745e-01    9.9460007812e+04
    1.3601994514e-01    9.9445851562e+04
    1.3602979481e-01    9.9432117188e+04
    1.3603994250e-01    9.9417960938e+04
    1.3604979217e-01    9.9404226562e+04
    1.3605993986e-01    9.9390085938e+04
    1.3606980443e-01    9.9376351562e+04
    1.3607995212e-01    9.9362218750e+04
    1.3608980179e-01    9.9348492188e+04
    1.3609994948e-01    9.9334351562e+04
    1.3610979915e-01    9.9320648438e+04
    1.3611994684e-01    9.9306523438e+04
    1.3612981141e-01    9.9292804688e+04
    1.3613995910e-01    9.9278679688e+04
    1.3614980876e-01    9.9264968750e+04
    1.3615995646e-01    9.9250851562e+04
    1.3616980612e-01    9.9237156250e+04
    1.3617996871e-01    9.9223039062e+04
    1.3618981838e-01    9.9209351562e+04
    1.3619996607e-01    9.9195242188e+04
    1.3620981574e-01    9.9181554688e+04
    1.3621996343e-01    9.9167460938e+04
    1.3622981310e-01    9.9153773438e+04
    1.3623997569e-01    9.9139679688e+04
    1.3624982536e-01    9.9126000000e+04
    1.3625997305e-01    9.9111914062e+04
    1.3626982272e-01    9.9098250000e+04
    1.3627997041e-01    9.9084164062e+04
    1.3628982008e-01    9.9070500000e+04
    1.3629998267e-01    9.9056429688e+04
    1.3630983233e-01    9.9042773438e+04
    1.3631998003e-01    9.9028710938e+04
    1.3632982969e-01    9.9015054688e+04
    1.3633997738e-01    9.9000992188e+04
    1.3634982705e-01    9.8987351562e+04
    1.3635998964e-01    9.8973304688e+04
    1.3636983931e-01    9.8959664062e+04
    1.3637998700e-01    9.8945625000e+04
    1.3638983667e-01    9.8932000000e+04
    1.3639998436e-01    9.8917960938e+04
    1.3640983403e-01    9.8904343750e+04
    1.3641999662e-01    9.8890320312e+04
    1.3642984629e-01    9.8876710938e+04
    1.3643999398e-01    9.8862695312e+04
    1.3644984365e-01    9.8849093750e+04
    1.3645999134e-01    9.8835085938e+04
    1.3646985590e-01    9.8821500000e+04
    1.3648000360e-01    9.8807507812e+04
    1.3648985326e-01    9.8793929688e+04
    1.3649970293e-01    9.8780351562e+04
    1.3650985062e-01    9.8766382812e+04
    1.3651970029e-01    9.8752820312e+04
    1.3652986288e-01    9.8738851562e+04
    1.3653971255e-01    9.8725312500e+04
    1.3654986024e-01    9.8711367188e+04
    1.3655970991e-01    9.8697835938e+04
    1.3656985760e-01    9.8683906250e+04
    1.3657970726e-01    9.8670398438e+04
    1.3658986986e-01    9.8656476562e+04
    1.3659971952e-01    9.8642976562e+04
    1.3660986722e-01    9.8629093750e+04
    1.3661971688e-01    9.8615617188e+04
    1.3662986457e-01    9.8601742188e+04
    1.3663971424e-01    9.8588289062e+04
    1.3664987683e-01    9.8574445312e+04
    1.3665972650e-01    9.8561023438e+04
    1.3666987419e-01    9.8547210938e+04
    1.3667972386e-01    9.8533804688e+04
    1.3668987155e-01    9.8520023438e+04
    1.3669973612e-01    9.8506656250e+04
    1.3670988381e-01    9.8492906250e+04
    1.3671973348e-01    9.8479585938e+04
    1.3672988117e-01    9.8465882812e+04
    1.3673973083e-01    9.8452601562e+04
    1.3674987853e-01    9.8438960938e+04
    1.3675974309e-01    9.8425726562e+04
    1.3676989079e-01    9.8412148438e+04
    1.3677974045e-01    9.8398976562e+04
    1.3678988814e-01    9.8385468750e+04
    1.3679973781e-01    9.8372398438e+04
    1.3680988550e-01    9.8358976562e+04
    1.3681975007e-01    9.8346023438e+04
    1.3682989776e-01    9.8332726562e+04
    1.3683974743e-01    9.8319898438e+04
    1.3684989512e-01    9.8306773438e+04
    1.3685974479e-01    9.8294117188e+04
    1.3686989248e-01    9.8281210938e+04
    1.3687975705e-01    9.8268804688e+04
    1.3688990474e-01    9.8256195312e+04
    1.3689975441e-01    9.8244148438e+04
    1.3690990210e-01    9.8231960938e+04
    1.3691975176e-01    9.8220414062e+04
    1.3692991436e-01    9.8208867188e+04
    1.3693976402e-01    9.8198085938e+04
    1.3694991171e-01    9.8187500000e+04
    1.3695976138e-01    9.8177898438e+04
    1.3696990907e-01    9.8168882812e+04
    1.3697975874e-01    9.8161226562e+04
    1.3698992133e-01    9.8154835938e+04
    1.3699977100e-01    9.8150507812e+04
    1.3700991869e-01    9.8148601562e+04
    1.3701976836e-01    9.8149398438e+04
    1.3702991605e-01    9.8151195312e+04
    1.3703976572e-01    9.8153382812e+04
    1.3704992831e-01    9.8156023438e+04
    1.3705977798e-01    9.8158898438e+04
    1.3706992567e-01    9.8162164062e+04
    1.3707977533e-01    9.8165585938e+04
    1.3708992302e-01    9.8169304688e+04
    1.3709977269e-01    9.8173039062e+04
    1.3710993528e-01    9.8176968750e+04
    1.3711978495e-01    9.8180789062e+04
    1.3712993264e-01    9.8184687500e+04
    1.3713978231e-01    9.8188382812e+04
    1.3714993000e-01    9.8192054688e+04
    1.3715977967e-01    9.8195445312e+04
    1.3716994226e-01    9.8198742188e+04
    1.3717979193e-01    9.8201726562e+04
    1.3718993962e-01    9.8204570312e+04
    1.3719978929e-01    9.8207101562e+04
    1.3720993698e-01    9.8209460938e+04
    1.3721980155e-01    9.8211523438e+04
    1.3722994924e-01    9.8213414062e+04
    1.3723979890e-01    9.8215039062e+04
    1.3724994659e-01    9.8216500000e+04
    1.3725979626e-01    9.8217726562e+04
    1.3726994395e-01    9.8218820312e+04
    1.3727980852e-01    9.8219718750e+04
    1.3728995621e-01    9.8220500000e+04
    1.3729980588e-01    9.8221132812e+04
    1.3730995357e-01    9.8221664062e+04
    1.3731980324e-01    9.8222101562e+04
    1.3732995093e-01    9.8222460938e+04
    1.3733981550e-01    9.8222742188e+04
    1.3734996319e-01    9.8222976562e+04
    1.3735981286e-01    9.8223148438e+04
    1.3736996055e-01    9.8223289062e+04
    1.3737981021e-01    9.8223398438e+04
    1.3738997281e-01    9.8223476562e+04
    1.3739982247e-01    9.8223531250e+04
    1.3740997016e-01    9.8223570312e+04
    1.3741981983e-01    9.8223601562e+04
    1.3742996752e-01    9.8223617188e+04
    1.3743981719e-01    9.8223625000e+04
    1.3744997978e-01    9.8223632812e+04
    1.3745982945e-01    9.8223632812e+04
    1.3746997714e-01    9.8223632812e+04
    1.3747982681e-01    9.8223632812e+04
    1.3748997450e-01    9.8223625000e+04
    1.3749982417e-01    9.8223625000e+04
    1.3750998676e-01    9.8223617188e+04
    1.3751983643e-01    9.8223617188e+04
    1.3752998412e-01    9.8223601562e+04
    1.3753983378e-01    9.8223601562e+04
    1.3754998147e-01    9.8223601562e+04
    1.3755983114e-01    9.8223601562e+04
    1.3756999373e-01    9.8223593750e+04
    1.3757984340e-01    9.8223585938e+04
    1.3758999109e-01    9.8223585938e+04
    1.3759984076e-01    9.8223585938e+04
    1.3760998845e-01    9.8223585938e+04
    1.3761983812e-01    9.8223585938e+04
    1.3763000071e-01    9.8223570312e+04
    1.3763985038e-01    9.8223570312e+04
    1.3764999807e-01    9.8223562500e+04
    1.3765984774e-01    9.8223562500e+04
    1.3766969740e-01    9.8223562500e+04
    1.3767986000e-01    9.8223554688e+04
    1.3768970966e-01    9.8223554688e+04
    1.3769985735e-01    9.8223554688e+04
    1.3770970702e-01    9.8223554688e+04
    1.3771985471e-01    9.8223539062e+04
    1.3772970438e-01    9.8223539062e+04
    1.3773986697e-01    9.8223539062e+04
    1.3774971664e-01    9.8223539062e+04
    1.3775986433e-01    9.8223539062e+04
    1.3776971400e-01    9.8223539062e+04
    1.3777986169e-01    9.8223539062e+04
    1.3778971136e-01    9.8223539062e+04
    1.3779987395e-01    9.8223539062e+04
    1.3780972362e-01    9.8223539062e+04
    1.3781987131e-01    9.8223539062e+04
    1.3782972097e-01    9.8223539062e+04
    1.3783986866e-01    9.8223531250e+04
    1.3784971833e-01    9.8223531250e+04
    1.3785988092e-01    9.8223531250e+04
    1.3786973059e-01    9.8223531250e+04
    1.3787987828e-01    9.8223531250e+04
    1.3788972795e-01    9.8223531250e+04
    1.3789987564e-01    9.8223531250e+04
    1.3790974021e-01    9.8223531250e+04
    1.3791988790e-01    9.8223531250e+04
    1.3792973757e-01    9.8223531250e+04
    1.3793988526e-01    9.8223531250e+04
    1.3794973493e-01    9.8223531250e+04
    1.3795988262e-01    9.8223531250e+04
    1.3796974719e-01    9.8223539062e+04
    1.3797989488e-01    9.8223539062e+04
    1.3798974454e-01    9.8223539062e+04
    1.3799989223e-01    9.8223539062e+04
    1.3800974190e-01    9.8223539062e+04
    1.3801988959e-01    9.8223539062e+04
    1.3802975416e-01    9.8223539062e+04
    1.3803990185e-01    9.8223539062e+04
    1.3804975152e-01    9.8223539062e+04
    1.3805989921e-01    9.8223539062e+04
    1.3806974888e-01    9.8223539062e+04
    1.3807989657e-01    9.8223539062e+04
    1.3808976114e-01    9.8223539062e+04
    1.3809990883e-01    9.8223539062e+04
    1.3810975850e-01    9.8223539062e+04
    1.3811990619e-01    9.8223539062e+04
    1.3812975585e-01    9.8223539062e+04
    1.3813991845e-01    9.8223539062e+04
    1.3814976811e-01    9.8223554688e+04
    1.3815991580e-01    9.8223554688e+04
    1.3816976547e-01    9.8223554688e+04
    1.3817991316e-01    9.8223554688e+04
    1.3818976283e-01    9.8223554688e+04
    1.3819992542e-01    9.8223554688e+04
    1.3820977509e-01    9.8223562500e+04
    1.3821992278e-01    9.8223562500e+04
    1.3822977245e-01    9.8223562500e+04
    1.3823992014e-01    9.8223562500e+04
    1.3824976981e-01    9.8223562500e+04
    1.3825993240e-01    9.8223562500e+04
    1.3826978207e-01    9.8223562500e+04
    1.3827992976e-01    9.8223570312e+04
    1.3828977942e-01    9.8223570312e+04
    1.3829992712e-01    9.8223570312e+04
    1.3830977678e-01    9.8223570312e+04
    1.3831993937e-01    9.8223570312e+04
    1.3832978904e-01    9.8223570312e+04
    1.3833993673e-01    9.8223570312e+04
    1.3834978640e-01    9.8223570312e+04
    1.3835993409e-01    9.8223570312e+04
    1.3836979866e-01    9.8223585938e+04
    1.3837994635e-01    9.8223585938e+04
    1.3838979602e-01    9.8223585938e+04
    1.3839994371e-01    9.8223585938e+04
    1.3840979338e-01    9.8223585938e+04
    1.3841994107e-01    9.8223585938e+04
    1.3842980564e-01    9.8223585938e+04
    1.3843995333e-01    9.8223585938e+04
    1.3844980299e-01    9.8223585938e+04
    1.3845995069e-01    9.8223585938e+04
    1.3846980035e-01    9.8223585938e+04
    1.3847994804e-01    9.8223585938e+04
    1.3848981261e-01    9.8223585938e+04
    1.3849996030e-01    9.8223585938e+04
    1.3850980997e-01    9.8223585938e+04
    1.3851995766e-01    9.8223585938e+04
    1.3852980733e-01    9.8223585938e+04
    1.3853996992e-01    9.8223585938e+04
    1.3854981959e-01    9.8223585938e+04
    1.3855996728e-01    9.8223585938e+04
    1.3856981695e-01    9.8223585938e+04
    1.3857996464e-01    9.8223585938e+04
    1.3858981431e-01    9.8223585938e+04
    1.3859997690e-01    9.8223585938e+04
    1.3860982656e-01    9.8223585938e+04
    1.3861997426e-01    9.8223585938e+04
    1.3862982392e-01    9.8223585938e+04
    1.3863997161e-01    9.8223585938e+04
    1.3864982128e-01    9.8223585938e+04
    1.3865998387e-01    9.8223585938e+04
    1.3866983354e-01    9.8223585938e+04
    1.3867998123e-01    9.8223585938e+04
    1.3868983090e-01    9.8223585938e+04
    1.3869997859e-01    9.8223585938e+04
    1.3870982826e-01    9.8223585938e+04
    1.3871999085e-01    9.8223585938e+04
    1.3872984052e-01    9.8223585938e+04
    1.3873998821e-01    9.8223593750e+04
    1.3874983788e-01    9.8223593750e+04
    1.3875998557e-01    9.8223593750e+04
    1.3876985013e-01    9.8223593750e+04
    1.3877999783e-01    9.8223593750e+04
    1.3878984749e-01    9.8223593750e+04
    1.3879999518e-01    9.8223593750e+04
    1.3880984485e-01    9.8223593750e+04
    1.3881999254e-01    9.8223593750e+04
    1.3882985711e-01    9.8223601562e+04
    1.3883970678e-01    9.8223601562e+04
    1.3884985447e-01    9.8223601562e+04
    1.3885970414e-01    9.8223601562e+04
    1.3886985183e-01    9.8223601562e+04
    1.3887970150e-01    9.8223601562e+04
    1.3888986409e-01    9.8223601562e+04
    1.3889971375e-01    9.8223601562e+04
    1.3890986145e-01    9.8223617188e+04
    1.3891971111e-01    9.8223617188e+04
    1.3892985880e-01    9.8223617188e+04
    1.3893970847e-01    9.8223625000e+04
    1.3894987106e-01    9.8223625000e+04
    1.3895972073e-01    9.8223625000e+04
    1.3896986842e-01    9.8223632812e+04
    1.3897971809e-01    9.8223632812e+04
    1.3898986578e-01    9.8223632812e+04
    1.3899973035e-01    9.8223648438e+04
    1.3900987804e-01    9.8223648438e+04
    1.3901972771e-01    9.8223648438e+04
    1.3902987540e-01    9.8223648438e+04
    1.3903972507e-01    9.8223656250e+04
    1.3904987276e-01    9.8223656250e+04
    1.3905973732e-01    9.8223656250e+04
    1.3906988502e-01    9.8223664062e+04
    1.3907973468e-01    9.8223664062e+04
    1.3908988237e-01    9.8223664062e+04
    1.3909973204e-01    9.8223664062e+04
    1.3910987973e-01    9.8223679688e+04
    1.3911974430e-01    9.8223679688e+04
    1.3912989199e-01    9.8223687500e+04
    1.3913974166e-01    9.8223687500e+04
    1.3914988935e-01    9.8223695312e+04
    1.3915973902e-01    9.8223695312e+04
    1.3916990161e-01    9.8223710938e+04
    1.3917975128e-01    9.8223710938e+04
    1.3918989897e-01    9.8223710938e+04
    1.3919974864e-01    9.8223710938e+04
    1.3920989633e-01    9.8223718750e+04
    1.3921974599e-01    9.8223718750e+04
    1.3922990859e-01    9.8223726562e+04
    1.3923975825e-01    9.8223726562e+04
    1.3924990594e-01    9.8223726562e+04
    1.3925975561e-01    9.8223726562e+04
    1.3926990330e-01    9.8223726562e+04
    1.3927975297e-01    9.8223742188e+04
    1.3928991556e-01    9.8223742188e+04
    1.3929976523e-01    9.8223750000e+04
    1.3930991292e-01    9.8223750000e+04
    1.3931976259e-01    9.8223757812e+04
    1.3932991028e-01    9.8223757812e+04
    1.3933975995e-01    9.8223773438e+04
    1.3934992254e-01    9.8223773438e+04
    1.3935977221e-01    9.8223773438e+04
    1.3936991990e-01    9.8223773438e+04
    1.3937976956e-01    9.8223781250e+04
    1.3938991725e-01    9.8223789062e+04
    1.3939978182e-01    9.8223789062e+04
    1.3940992951e-01    9.8223789062e+04
    1.3941977918e-01    9.8223789062e+04
    1.3942992687e-01    9.8223804688e+04
    1.3943977654e-01    9.8223804688e+04
    1.3944992423e-01    9.8223812500e+04
    1.3945978880e-01    9.8223820312e+04
    1.3946993649e-01    9.8223820312e+04
    1.3947978616e-01    9.8223835938e+04
    1.3948993385e-01    9.8223835938e+04
    1.3949978352e-01    9.8223835938e+04
    1.3950993121e-01    9.8223843750e+04
    1.3951979578e-01    9.8223843750e+04
    1.3952994347e-01    9.8223851562e+04
    1.3953979313e-01    9.8223851562e+04
    1.3954994082e-01    9.8223851562e+04
    1.3955979049e-01    9.8223851562e+04
    1.3956995308e-01    9.8223867188e+04
    1.3957980275e-01    9.8223875000e+04
    1.3958995044e-01    9.8223875000e+04
    1.3959980011e-01    9.8223882812e+04
    1.3960994780e-01    9.8223898438e+04
    1.3961979747e-01    9.8223898438e+04
    1.3962996006e-01    9.8223898438e+04
    1.3963980973e-01    9.8223906250e+04
    1.3964995742e-01    9.8223906250e+04
    1.3965980709e-01    9.8223914062e+04
    1.3966995478e-01    9.8223914062e+04
    1.3967980444e-01    9.8223929688e+04
    1.3968996704e-01    9.8223937500e+04
    1.3969981670e-01    9.8223937500e+04
    1.3970996439e-01    9.8223945312e+04
    1.3971981406e-01    9.8223960938e+04
    1.3972996175e-01    9.8223960938e+04
    1.3973981142e-01    9.8223968750e+04
    1.3974997401e-01    9.8223976562e+04
    1.3975982368e-01    9.8223976562e+04
    1.3976997137e-01    9.8223976562e+04
    1.3977982104e-01    9.8223992188e+04
    1.3978996873e-01    9.8224000000e+04
    1.3979983330e-01    9.8224007812e+04
    1.3980998099e-01    9.8224023438e+04
    1.3981983066e-01    9.8224023438e+04
    1.3982997835e-01    9.8224023438e+04
    1.3983982801e-01    9.8224031250e+04
    1.3984997571e-01    9.8224039062e+04
    1.3985984027e-01    9.8224039062e+04
    1.3986998796e-01    9.8224054688e+04
    1.3987983763e-01    9.8224054688e+04
    1.3988998532e-01    9.8224062500e+04
    1.3989983499e-01    9.8224070312e+04
    1.3990998268e-01    9.8224085938e+04
    1.3991984725e-01    9.8224085938e+04
    1.3992999494e-01    9.8224085938e+04
    1.3993984461e-01    9.8224093750e+04
    1.3994999230e-01    9.8224093750e+04
    1.3995984197e-01    9.8224101562e+04
    1.3997000456e-01    9.8224101562e+04
    1.3997985423e-01    9.8224101562e+04
    1.3998970389e-01    9.8224117188e+04
    1.3999985158e-01    9.8224117188e+04
endcurve
