Curveplot
LS-DYNA keyword deck by LS-PrePost                          
Time
Pressure
Defined Connection
Pressure @ 21 #pts=12001
* Minval=     9.3724335938e+04 at time=         0.0331696905
* Maxval=     1.2413866406e+05 at time=         0.0220097322
    0.0000000000e+00    1.0120000000e+05
    9.9485323517e-06    1.0120000000e+05
    1.9967266780e-05    1.0120000000e+05
    2.9988405004e-05    1.0120000000e+05
    3.9977468987e-05    1.0120000000e+05
    4.9955433497e-05    1.0120000000e+05
    5.9999150835e-05    1.0120000000e+05
    6.9997666287e-05    1.0120000000e+05
    7.9943783931e-05    1.0120000000e+05
    8.9953799034e-05    1.0120000000e+05
    9.9939257780e-05    1.0120000000e+05
    1.0995691991e-04    1.0120000000e+05
    1.1999105482e-04    1.0120000000e+05
    1.2994419376e-04    1.0120000000e+05
    1.3996455527e-04    1.0120000000e+05
    1.4995649690e-04    1.0120000000e+05
    1.5999299649e-04    1.0120000000e+05
    1.6997339844e-04    1.0120000000e+05
    1.7997267423e-04    1.0120000000e+05
    1.8997961888e-04    1.0120000000e+05
    1.9998016069e-04    1.0120000000e+05
    2.0994884835e-04    1.0120000000e+05
    2.1996539726e-04    1.0120000000e+05
    2.2992993763e-04    1.0120000000e+05
    2.3993715877e-04    1.0120000000e+05
    2.4998566369e-04    1.0120000000e+05
    2.5996973272e-04    1.0120000000e+05
    2.6998814428e-04    1.0120000000e+05
    2.7993333060e-04    1.0120000000e+05
    2.8990721330e-04    1.0120000000e+05
    2.9990830808e-04    1.0120000000e+05
    3.0993486871e-04    1.0120000000e+05
    3.1998552731e-04    1.0120000000e+05
    3.2994468347e-04    1.0120000000e+05
    3.3992077806e-04    1.0120000000e+05
    3.4991253051e-04    1.0120000000e+05
    3.5991810728e-04    1.0120000000e+05
    3.6993535468e-04    1.0120000000e+05
    3.7996208994e-04    1.0120000000e+05
    3.8999709068e-04    1.0120000000e+05
    3.9991296944e-04    1.0120000000e+05
    4.0995603194e-04    1.0120000000e+05
    4.1987365694e-04    1.0120000000e+05
    4.2991744704e-04    1.0120000000e+05
    4.3995887972e-04    1.0120000000e+05
    4.4999565580e-04    1.0120000000e+05
    4.5989148202e-04    1.0120000000e+05
    4.6991108684e-04    1.0120000000e+05
    4.7991893371e-04    1.0120000000e+05
    4.8991251970e-04    1.0120000000e+05
    4.9988779938e-04    1.0120000000e+05
    5.0998991355e-04    1.0120000000e+05
    5.1992869703e-04    1.0120000000e+05
    5.2998948377e-04    1.0120000000e+05
    5.3987791762e-04    1.0120000000e+05
    5.4988602642e-04    1.0120000000e+05
    5.5986439111e-04    1.0120000000e+05
    5.6996371131e-04    1.0120000000e+05
    5.7986762840e-04    1.0120000000e+05
    5.8989657555e-04    1.0120000000e+05
    5.9988640714e-04    1.0120000000e+05
    6.0999498237e-04    1.0120000000e+05
    6.1989796814e-04    1.0120000000e+05
    6.2991678715e-04    1.0120000000e+05
    6.3988607144e-04    1.0120000000e+05
    6.4997159643e-04    1.0120000000e+05
    6.5983319655e-04    1.0120000000e+05
    6.6998001421e-04    1.0120000000e+05
    6.7989510717e-04    1.0120000000e+05
    6.8992091110e-04    1.0120000000e+05
    6.9987896131e-04    1.0120000000e+05
    7.0995325223e-04    1.0120000000e+05
    7.1995874168e-04    1.0120000000e+05
    7.2989123873e-04    1.0120000000e+05
    7.3993357364e-04    1.0120000000e+05
    7.4989884160e-04    1.0120000000e+05
    7.5997400563e-04    1.0120000000e+05
    7.6996767893e-04    1.0120000000e+05
    7.7987555414e-04    1.0120000000e+05
    7.8989082249e-04    1.0120000000e+05
    7.9981575254e-04    1.0120000000e+05
    8.0984784290e-04    1.0120000000e+05
    8.1998860696e-04    1.0120000000e+05
    8.2982837921e-04    1.0120000000e+05
    8.3998078480e-04    1.0120000000e+05
    8.4982288536e-04    1.0120000000e+05
    8.5998105351e-04    1.0120000000e+05
    8.6982006906e-04    1.0120000000e+05
    8.7997905212e-04    1.0120000000e+05
    8.8980887085e-04    1.0120000000e+05
    8.9996348834e-04    1.0120000000e+05
    9.0977916261e-04    1.0120000000e+05
    9.1992400121e-04    1.0120000000e+05
    9.2994893203e-04    1.0120000000e+05
    9.3984801788e-04    1.0120000000e+05
    9.4985170290e-04    1.0120000000e+05
    9.5996231539e-04    1.0120000000e+05
    9.6994003979e-04    1.0120000000e+05
    9.7978126723e-04    1.0120000000e+05
    9.8996900488e-04    1.0120000000e+05
    9.9977571517e-04    1.0120000000e+05
    1.0099316714e-03    1.0120000000e+05
    1.0199440876e-03    1.0120000000e+05
    1.0298090056e-03    1.0120000000e+05
    1.0397767182e-03    1.0120000000e+05
    1.0498490883e-03    1.0120000000e+05
    1.0597663932e-03    1.0120000000e+05
    1.0697878897e-03    1.0120000000e+05
    1.0799156735e-03    1.0120000000e+05
    1.0898810579e-03    1.0120000000e+05
    1.0999524966e-03    1.0120000000e+05
    1.1098546674e-03    1.0120000000e+05
    1.1198616121e-03    1.0120000000e+05
    1.1299749603e-03    1.0120000000e+05
    1.1399119394e-03    1.0120000000e+05
    1.1499546235e-03    1.0120000000e+05
    1.1598138371e-03    1.0120000000e+05
    1.1697773589e-03    1.0120000000e+05
    1.1798474006e-03    1.0120000000e+05
    1.1897258228e-03    1.0120000000e+05
    1.1997097172e-03    1.0120000000e+05
    1.2098015286e-03    1.0120000000e+05
    1.2196927564e-03    1.0120000000e+05
    1.2296907371e-03    1.0120000000e+05
    1.2397977989e-03    1.0120000000e+05
    1.2496955460e-03    1.0120000000e+05
    1.2597009772e-03    1.0120000000e+05
    1.2698167702e-03    1.0120000000e+05
    1.2797135860e-03    1.0120000000e+05
    1.2897128472e-03    1.0120000000e+05
    1.2998295715e-03    1.0120000000e+05
    1.3097180054e-03    1.0120000000e+05
    1.3197158696e-03    1.0120000000e+05
    1.3298263075e-03    1.0120000000e+05
    1.3396976283e-03    1.0120000000e+05
    1.3496796601e-03    1.0120000000e+05
    1.3597751968e-03    1.0120000000e+05
    1.3699872652e-03    1.0120000000e+05
    1.3799484586e-03    1.0120000000e+05
    1.3896489982e-03    1.0120000000e+05
    1.3998383656e-03    1.0120000000e+05
    1.4097646344e-03    1.0120000000e+05
    1.4198067365e-03    1.0120000000e+05
    1.4299664181e-03    1.0120000000e+05
    1.4398457715e-03    1.0120000000e+05
    1.4498467790e-03    1.0120000000e+05
    1.4599689748e-03    1.0120000000e+05
    1.4698026935e-03    1.0120000000e+05
    1.4797537588e-03    1.0120000000e+05
    1.4898255467e-03    1.0120000000e+05
    1.4995951205e-03    1.0120000000e+05
    1.5099151060e-03    1.0120000000e+05
    1.5199091285e-03    1.0120000000e+05
    1.5299790539e-03    1.0120000000e+05
    1.5396649251e-03    1.0120000000e+05
    1.5498397406e-03    1.0120000000e+05
    1.5596036101e-03    1.0120000000e+05
    1.5698109055e-03    1.0120000000e+05
    1.5796002699e-03    1.0120000000e+05
    1.5898437705e-03    1.0120000000e+05
    1.5996479196e-03    1.0120000000e+05
    1.6098648775e-03    1.0120000000e+05
    1.6196534270e-03    1.0120000000e+05
    1.6298717819e-03    1.0120000000e+05
    1.6396638239e-03    1.0120000000e+05
    1.6498684417e-03    1.0120000000e+05
    1.6596403439e-03    1.0120000000e+05
    1.6698330874e-03    1.0120000000e+05
    1.6796352575e-03    1.0120000000e+05
    1.6899020411e-03    1.0120000000e+05
    1.6996432096e-03    1.0120000000e+05
    1.7098378157e-03    1.0120000000e+05
    1.7196679255e-03    1.0120000000e+05
    1.7299473984e-03    1.0120000000e+05
    1.7397985794e-03    1.0120000000e+05
    1.7496814253e-03    1.0120000000e+05
    1.7596083926e-03    1.0120000000e+05
    1.7699784366e-03    1.0120000000e+05
    1.7799265916e-03    1.0120000000e+05
    1.7898862716e-03    1.0120000000e+05
    1.7998490948e-03    1.0120000000e+05
    1.8098092405e-03    1.0120000000e+05
    1.8197493628e-03    1.0120000000e+05
    1.8296452472e-03    1.0120000000e+05
    1.8399644177e-03    1.0120000000e+05
    1.8497663550e-03    1.0120000000e+05
    1.8599432660e-03    1.0120000000e+05
    1.8695851322e-03    1.0120000000e+05
    1.8799977843e-03    1.0120000000e+05
    1.8898745766e-03    1.0120000000e+05
    1.8996539293e-03    1.0120000000e+05
    1.9097564509e-03    1.0120000000e+05
    1.9197572256e-03    1.0120000000e+05
    1.9296579994e-03    1.0120000000e+05
    1.9398671575e-03    1.0120000000e+05
    1.9499714253e-03    1.0120000000e+05
    1.9599727821e-03    1.0120000000e+05
    1.9698729739e-03    1.0120000000e+05
    1.9796739798e-03    1.0120000000e+05
    1.9897629973e-03    1.0120000000e+05
    1.9997486379e-03    1.0120000000e+05
    2.0096320659e-03    1.0120000000e+05
    2.0197888371e-03    1.0120000000e+05
    2.0298385061e-03    1.0120000000e+05
    2.0397827029e-03    1.0120000000e+05
    2.0499848761e-03    1.0120000000e+05
    2.0597183611e-03    1.0120000000e+05
    2.0697049331e-03    1.0120000000e+05
    2.0799348131e-03    1.0120000000e+05
    2.0897039212e-03    1.0120000000e+05
    2.0997107495e-03    1.0120000000e+05
    2.1099452861e-03    1.0120000000e+05
    2.1197260357e-03    1.0120000000e+05
    2.1297289059e-03    1.0120000000e+05
    2.1399431862e-03    1.0120000000e+05
    2.1497111302e-03    1.0120000000e+05
    2.1596846636e-03    1.0120000000e+05
    2.1698533092e-03    1.0120000000e+05
    2.1798934322e-03    1.0120000000e+05
    2.1898061968e-03    1.0120000000e+05
    2.1998961456e-03    1.0120000000e+05
    2.2098517511e-03    1.0120000000e+05
    2.2199687082e-03    1.0120000000e+05
    2.2299443372e-03    1.0120000000e+05
    2.2397784051e-03    1.0120000000e+05
    2.2497542668e-03    1.0120000000e+05
    2.2598586511e-03    1.0120000000e+05
    2.2698042449e-03    1.0120000000e+05
    2.2798602004e-03    1.0120000000e+05
    2.2897471208e-03    1.0120000000e+05
    2.2999849170e-03    1.0120000000e+05
    2.3097770754e-03    1.0120000000e+05
    2.3198882118e-03    1.0120000000e+05
    2.3297951557e-03    1.0120000000e+05
    2.3399752099e-03    1.0120000000e+05
    2.3499238305e-03    1.0120000000e+05
    2.3598647676e-03    1.0120000000e+05
    2.3699977901e-03    1.0120000000e+05
    2.3798469920e-03    1.0120000000e+05
    2.3898207583e-03    1.0120000000e+05
    2.3998667020e-03    1.0120000000e+05
    2.4099231232e-03    1.0120000000e+05
    2.4199180771e-03    1.0120000000e+05
    2.4299393408e-03    1.0120000000e+05
    2.4398446549e-03    1.0120000000e+05
    2.4498899002e-03    1.0120000000e+05
    2.4598932359e-03    1.0120000000e+05
    2.4699657224e-03    1.0120000000e+05
    2.4799145758e-03    1.0120000000e+05
    2.4899765849e-03    1.0120000000e+05
    2.4998914450e-03    1.0120000000e+05
    2.5098943152e-03    1.0120000000e+05
    2.5198729709e-03    1.0120000000e+05
    2.5299242698e-03    1.0120000000e+05
    2.5398964062e-03    1.0120000000e+05
    2.5498783216e-03    1.0120000000e+05
    2.5598914362e-03    1.0120000000e+05
    2.5699276011e-03    1.0120000000e+05
    2.5799218565e-03    1.0120000000e+05
    2.5898963213e-03    1.0120000000e+05
    2.5998710189e-03    1.0120000000e+05
    2.6098317467e-03    1.0120000000e+05
    2.6198832784e-03    1.0120000000e+05
    2.6299732272e-03    1.0120000000e+05
    2.6398098562e-03    1.0120000000e+05
    2.6499077212e-03    1.0120000000e+05
    2.6598880067e-03    1.0120000000e+05
    2.6699891314e-03    1.0120000000e+05
    2.6799370535e-03    1.0120000000e+05
    2.6899587829e-03    1.0120000000e+05
    2.6998401154e-03    1.0120000000e+05
    2.7098013088e-03    1.0120000000e+05
    2.7198411990e-03    1.0120000000e+05
    2.7299358044e-03    1.0120000000e+05
    2.7398616076e-03    1.0120000000e+05
    2.7498514391e-03    1.0120000000e+05
    2.7599011082e-03    1.0120000000e+05
    2.7697843034e-03    1.0120000000e+05
    2.7799501549e-03    1.0120000000e+05
    2.7899325360e-03    1.0120000000e+05
    2.7999721933e-03    1.0120000000e+05
    2.8098083567e-03    1.0120000000e+05
    2.8199451044e-03    1.0120000000e+05
    2.8298790567e-03    1.0120000000e+05
    2.8398511931e-03    1.0120000000e+05
    2.8498775791e-03    1.0120000000e+05
    2.8599335346e-03    1.0120000000e+05
    2.8697866946e-03    1.0120000000e+05
    2.8799339198e-03    1.0120000000e+05
    2.8898529708e-03    1.0120000000e+05
    2.8998244088e-03    1.0120000000e+05
    2.9098268133e-03    1.0120000000e+05
    2.9198485427e-03    1.0120000000e+05
    2.9299270827e-03    1.0120000000e+05
    2.9397672042e-03    1.0120000000e+05
    2.9498834629e-03    1.0120000000e+05
    2.9597952962e-03    1.0120000000e+05
    2.9699683655e-03    1.0120000000e+05
    2.9799223412e-03    1.0120000000e+05
    2.9899165966e-03    1.0120000000e+05
    2.9999136459e-03    1.0120000000e+05
    3.0099425931e-03    1.0120000000e+05
    3.0197431333e-03    1.0120000000e+05
    3.0297941994e-03    1.0120000000e+05
    3.0398834497e-03    1.0120000000e+05
    3.0499917921e-03    1.0120000000e+05
    3.0598349404e-03    1.0120000000e+05
    3.0699719209e-03    1.0120000000e+05
    3.0798541848e-03    1.0120000000e+05
    3.0899983831e-03    1.0120000000e+05
    3.0998969451e-03    1.0120000000e+05
    3.1097980682e-03    1.0120000000e+05
    3.1199571677e-03    1.0120000000e+05
    3.1298666727e-03    1.0120000000e+05
    3.1397717539e-03    1.0120000000e+05
    3.1499350443e-03    1.0120000000e+05
    3.1598506030e-03    1.0120000000e+05
    3.1697580125e-03    1.0120000000e+05
    3.1799208373e-03    1.0120000000e+05
    3.1898417510e-03    1.0120000000e+05
    3.1997517217e-03    1.0120000000e+05
    3.2099189702e-03    1.0120000000e+05
    3.2198512927e-03    1.0120000000e+05
    3.2297736034e-03    1.0120000000e+05
    3.2399669290e-03    1.0120000000e+05
    3.2499129884e-03    1.0120000000e+05
    3.2598637044e-03    1.0120000000e+05
    3.2698228024e-03    1.0120000000e+05
    3.2798035536e-03    1.0120000000e+05
    3.2897775527e-03    1.0120000000e+05
    3.2997759990e-03    1.0120000000e+05
    3.3097860869e-03    1.0120000000e+05
    3.3198043238e-03    1.0120000000e+05
    3.3298283815e-03    1.0120000000e+05
    3.3398815431e-03    1.0120000000e+05
    3.3499326091e-03    1.0120000000e+05
    3.3597361762e-03    1.0120000000e+05
    3.3698154148e-03    1.0120000000e+05
    3.3799135126e-03    1.0120000000e+05
    3.3897501417e-03    1.0120000000e+05
    3.3998673316e-03    1.0120000000e+05
    3.4099943005e-03    1.0120000000e+05
    3.4198742360e-03    1.0120000000e+05
    3.4297609236e-03    1.0120000000e+05
    3.4399202559e-03    1.0120000000e+05
    3.4498318564e-03    1.0120000000e+05
    3.4597534686e-03    1.0120000000e+05
    3.4699533135e-03    1.0120000000e+05
    3.4798881970e-03    1.0120000000e+05
    3.4898489248e-03    1.0120000000e+05
    3.4998084884e-03    1.0120000000e+05
    3.5097813234e-03    1.0120000000e+05
    3.5197585821e-03    1.0120000000e+05
    3.5297579598e-03    1.0120000000e+05
    3.5397580359e-03    1.0120000000e+05
    3.5497709177e-03    1.0120000000e+05
    3.5597898532e-03    1.0120000000e+05
    3.5698283464e-03    1.0120000000e+05
    3.5798670724e-03    1.0120000000e+05
    3.5899130162e-03    1.0120000000e+05
    3.5999708343e-03    1.0120000000e+05
    3.6097732373e-03    1.0120000000e+05
    3.6198429298e-03    1.0120000000e+05
    3.6299261265e-03    1.0120000000e+05
    3.6397471558e-03    1.0120000000e+05
    3.6498571280e-03    1.0120000000e+05
    3.6599608138e-03    1.0120000000e+05
    3.6697993055e-03    1.0120000000e+05
    3.6799267400e-03    1.0120000000e+05
    3.6897915415e-03    1.0120000000e+05
    3.6999336444e-03    1.0120000000e+05
    3.7097968161e-03    1.0120000000e+05
    3.7199631333e-03    1.0120000000e+05
    3.7298430689e-03    1.0120000000e+05
    3.7397460546e-03    1.0120000000e+05
    3.7499044556e-03    1.0120000000e+05
    3.7598218769e-03    1.0120000000e+05
    3.7697388325e-03    1.0120000000e+05
    3.7799417041e-03    1.0120000000e+05
    3.7898528390e-03    1.0120000000e+05
    3.7997809704e-03    1.0120000000e+05
    3.8097256329e-03    1.0120000000e+05
    3.8199578412e-03    1.0120000000e+05
    3.8299255539e-03    1.0120000000e+05
    3.8398879115e-03    1.0120000000e+05
    3.8498421200e-03    1.0120000000e+05
    3.8597946987e-03    1.0120000000e+05
    3.8697621785e-03    1.0120000000e+05
    3.8797406014e-03    1.0120000000e+05
    3.8897255436e-03    1.0120000000e+05
    3.8999856915e-03    1.0120000000e+05
    3.9099659771e-03    1.0120000000e+05
    3.9199455641e-03    1.0120000000e+05
    3.9299223572e-03    1.0120000000e+05
    3.9398996159e-03    1.0120000000e+05
    3.9498792030e-03    1.0120000000e+05
    3.9598615840e-03    1.0120000000e+05
    3.9698407054e-03    1.0120000000e+05
    3.9798193611e-03    1.0120000000e+05
    3.9898026735e-03    1.0120000000e+05
    3.9997897111e-03    1.0120000000e+05
    4.0097725578e-03    1.0120000000e+05
    4.0197540075e-03    1.0120000000e+05
    4.0297429077e-03    1.0120000000e+05
    4.0397364646e-03    1.0120000000e+05
    4.0497272275e-03    1.0120000000e+05
    4.0599852800e-03    1.0120000000e+05
    4.0699858218e-03    1.0120000000e+05
    4.0799984708e-03    1.0120000000e+05
    4.0897279978e-03    1.0120000000e+05
    4.0997238830e-03    1.0120000000e+05
    4.1097388603e-03    1.0120000000e+05
    4.1197794490e-03    1.0120000000e+05
    4.1298177093e-03    1.0120000000e+05
    4.1398573667e-03    1.0120000000e+05
    4.1499026120e-03    1.0120000000e+05
    4.1599632241e-03    1.0120000000e+05
    4.1697449051e-03    1.0120000000e+05
    4.1798166931e-03    1.0120000000e+05
    4.1898917407e-03    1.0120000000e+05
    4.1999658570e-03    1.0120000000e+05
    4.2097535916e-03    1.0120000000e+05
    4.2198188603e-03    1.0120000000e+05
    4.2298953049e-03    1.0120000000e+05
    4.2399782687e-03    1.0120000000e+05
    4.2497860268e-03    1.0120000000e+05
    4.2598722503e-03    1.0120000000e+05
    4.2699575424e-03    1.0120000000e+05
    4.2797615752e-03    1.0120000000e+05
    4.2898450047e-03    1.0120000000e+05
    4.2999307625e-03    1.0120000000e+05
    4.3097394519e-03    1.0120000000e+05
    4.3198270723e-03    1.0120000000e+05
    4.3299132958e-03    1.0120000000e+05
    4.3399976566e-03    1.0120000000e+05
    4.3498044834e-03    1.0120000000e+05
    4.3598953635e-03    1.0120000000e+05
    4.3699843809e-03    1.0120000000e+05
    4.3797926046e-03    1.0120000000e+05
    4.3898792937e-03    1.0120000000e+05
    4.3999692425e-03    1.0120000000e+05
    4.4097807258e-03    1.0120000000e+05
    4.4198711403e-03    1.0120000000e+05
    4.4299606234e-03    1.0120000000e+05
    4.4397711754e-03    1.0120000000e+05
    4.4498639181e-03    1.0120000000e+05
    4.4599557295e-03    1.0120000000e+05
    4.4697658159e-03    1.0120000000e+05
    4.4798580930e-03    1.0120000000e+05
    4.4899517670e-03    1.0120000000e+05
    4.4997637160e-03    1.0120000000e+05
    4.5098555274e-03    1.0120000000e+05
    4.5199482702e-03    1.0120000000e+05
    4.5297606848e-03    1.0120000000e+05
    4.5398529619e-03    1.0120000000e+05
    4.5499452390e-03    1.0120000000e+05
    4.5597581193e-03    1.0120000000e+05
    4.5698508620e-03    1.0120000000e+05
    4.5799431391e-03    1.0120000000e+05
    4.5897550881e-03    1.0120000000e+05
    4.5998468995e-03    1.0120000000e+05
    4.6099387109e-03    1.0120000000e+05
    4.6197501943e-03    1.0120000000e+05
    4.6298424713e-03    1.0120000000e+05
    4.6399342827e-03    1.0120000000e+05
    4.6497448348e-03    1.0120000000e+05
    4.6598352492e-03    1.0120000000e+05
    4.6699251980e-03    1.0120000000e+05
    4.6797348186e-03    1.0120000000e+05
    4.6898252331e-03    1.0120000000e+05
    4.6999161132e-03    1.0120000000e+05
    4.7097257338e-03    1.0120000000e+05
    4.7198156826e-03    1.0120000000e+05
    4.7299051657e-03    1.0120000000e+05
    4.7399941832e-03    1.0120000000e+05
    4.7498024069e-03    1.0120000000e+05
    4.7598904930e-03    1.0120000000e+05
    4.7699781135e-03    1.0120000000e+05
    4.7797849402e-03    1.0120000000e+05
    4.7898725607e-03    1.0120000000e+05
    4.7999597155e-03    1.0120000000e+05
    4.8097674735e-03    1.0120000000e+05
    4.8198546283e-03    1.0120000000e+05
    4.8299417831e-03    1.0120000000e+05
    4.8397476785e-03    1.0120000000e+05
    4.8498329706e-03    1.0120000000e+05
    4.8599182628e-03    1.0120000000e+05
    4.8697236925e-03    1.0120000000e+05
    4.8798089847e-03    1.0120000000e+05
    4.8898938112e-03    1.0120000000e+05
    4.8999786377e-03    1.0120000000e+05
    4.9097845331e-03    1.0120000000e+05
    4.9198702909e-03    1.0120000000e+05
    4.9299551174e-03    1.0120000000e+05
    4.9397614785e-03    1.0120000000e+05
    4.9498528242e-03    1.0120000000e+05
    4.9599460326e-03    1.0120000000e+05
    4.9697603099e-03    1.0120000000e+05
    4.9798623659e-03    1.0120000000e+05
    4.9899751320e-03    1.0120000000e+05
    4.9998117611e-03    1.0120000000e+05
    5.0099268556e-03    1.0120000000e+05
    5.0197774544e-03    1.0120000000e+05
    5.0299246795e-03    1.0120000000e+05
    5.0397953019e-03    1.0120000000e+05
    5.0499467179e-03    1.0120000000e+05
    5.0598229282e-03    1.0120000000e+05
    5.0697205588e-03    1.0120000000e+05
    5.0799162127e-03    1.0120000000e+05
    5.0898250192e-03    1.0120000000e+05
    5.0997361541e-03    1.0120000000e+05
    5.1099448465e-03    1.0120000000e+05
    5.1198867150e-03    1.0120000000e+05
    5.1298383623e-03    1.0120000000e+05
    5.1397900097e-03    1.0120000000e+05
    5.1497463137e-03    1.0120000000e+05
    5.1597189158e-03    1.0120000000e+05
    5.1699853502e-03    1.0120000000e+05
    5.1799784414e-03    1.0120000000e+05
    5.1899752580e-03    1.0120000000e+05
    5.1999753341e-03    1.0120000000e+05
    5.2099861205e-03    1.0120000000e+05
    5.2197217010e-03    1.0120000000e+05
    5.2297553048e-03    1.0120000000e+05
    5.2397972904e-03    1.0120000000e+05
    5.2498369478e-03    1.0120000000e+05
    5.2598826587e-03    1.0120000000e+05
    5.2699432708e-03    1.0120000000e+05
    5.2797272801e-03    1.0120000000e+05
    5.2898055874e-03    1.0120000000e+05
    5.2998838946e-03    1.0120000000e+05
    5.3099612705e-03    1.0120000000e+05
    5.3197676316e-03    1.0120000000e+05
    5.3298766725e-03    1.0120000000e+05
    5.3399889730e-03    1.0120000000e+05
    5.3498167545e-03    1.0120000000e+05
    5.3599337116e-03    1.0120000000e+05
    5.3697708063e-03    1.0120000000e+05
    5.3799143061e-03    1.0120000000e+05
    5.3897676989e-03    1.0120000000e+05
    5.3999144584e-03    1.0120000000e+05
    5.4097771645e-03    1.0120000000e+05
    5.4199350998e-03    1.0120000000e+05
    5.4298192263e-03    1.0120000000e+05
    5.4397103377e-03    1.0120000000e+05
    5.4498855025e-03    1.0120000000e+05
    5.4597817361e-03    1.0120000000e+05
    5.4699741304e-03    1.0120000000e+05
    5.4798857309e-03    1.0120000000e+05
    5.4898131639e-03    1.0120000000e+05
    5.4997308180e-03    1.0120000000e+05
    5.5099413730e-03    1.0120000000e+05
    5.5198804475e-03    1.0120000000e+05
    5.5298209190e-03    1.0120000000e+05
    5.5397758260e-03    1.0120000000e+05
    5.5497325957e-03    1.0120000000e+05
    5.5599696934e-03    1.0120000000e+05
    5.5699278601e-03    1.0120000000e+05
    5.5799060501e-03    1.0120000000e+05
    5.5898847058e-03    1.0120000000e+05
    5.5998782627e-03    1.0120000000e+05
    5.6098611094e-03    1.0120000000e+05
    5.6198402308e-03    1.0120000000e+05
    5.6298426352e-03    1.0120000000e+05
    5.6398529559e-03    1.0120000000e+05
    5.6498646736e-03    1.0120000000e+05
    5.6598871015e-03    1.0120000000e+05
    5.6698960252e-03    1.0120000000e+05
    5.6799133308e-03    1.0120000000e+05
    5.6899571791e-03    1.0120000000e+05
    5.6999917142e-03    1.0120000000e+05
    5.7097380050e-03    1.0120000000e+05
    5.7197855785e-03    1.0120000000e+05
    5.7298238389e-03    1.0120000000e+05
    5.7398811914e-03    1.0120000000e+05
    5.7499534450e-03    1.0120000000e+05
    5.7597183622e-03    1.0120000000e+05
    5.7698013261e-03    1.0120000000e+05
    5.7798805647e-03    1.0120000000e+05
    5.7899616659e-03    1.0120000000e+05
    5.7997656986e-03    1.0120000000e+05
    5.8098612353e-03    1.0120000000e+05
    5.8199516498e-03    1.0120000000e+05
    5.8297743089e-03    1.0120000000e+05
    5.8398870751e-03    1.0120000000e+05
    5.8497111313e-03    1.0120000000e+05
    5.8598509058e-03    1.0120000000e+05
    5.8699753135e-03    1.0120000000e+05
    5.8798054233e-03    1.0120000000e+05
    5.8899638243e-03    1.0120000000e+05
    5.8998130262e-03    1.0120000000e+05
    5.9099728242e-03    1.0120000000e+05
    5.9198369272e-03    1.0120000000e+05
    5.9299948625e-03    1.0120000000e+05
    5.9398738667e-03    1.0120000000e+05
    5.9497696348e-03    1.0120000000e+05
    5.9599578381e-03    1.0120000000e+05
    5.9698559344e-03    1.0120000000e+05
    5.9797456488e-03    1.0120000000e+05
    5.9899380431e-03    1.0120000000e+05
    5.9998556972e-03    1.0120000000e+05
    6.0097835958e-03    1.0120000000e+05
    6.0197147541e-03    1.0120000000e+05
    6.0299509205e-03    1.0120000000e+05
    6.0398806818e-03    1.0120000000e+05
    6.0498099774e-03    1.0120000000e+05
    6.0597565025e-03    1.0120000000e+05
    6.0697169974e-03    1.0120000000e+05
    6.0799857602e-03    1.0120000000e+05
    6.0899625532e-03    1.0120000000e+05
    6.0999365523e-03    1.0120000000e+05
    6.1099068262e-03    1.0120000000e+05
    6.1198878102e-03    1.0120000000e+05
    6.1298748478e-03    1.0120000000e+05
    6.1398772523e-03    1.0120000000e+05
    6.1498950236e-03    1.0120000000e+05
    6.1599086039e-03    1.0120000000e+05
    6.1699263752e-03    1.0120000000e+05
    6.1799515970e-03    1.0120000000e+05
    6.1899726279e-03    1.0120000000e+05
    6.1997072771e-03    1.0120000000e+05
    6.2097539194e-03    1.0120000000e+05
    6.2198084779e-03    1.0120000000e+05
    6.2298737466e-03    1.0120000000e+05
    6.2399380840e-03    1.0120000000e+05
    6.2497020699e-03    1.0120000000e+05
    6.2597761862e-03    1.0120000000e+05
    6.2698642723e-03    1.0120000000e+05
    6.2799584121e-03    1.0120000000e+05
    6.2897526659e-03    1.0120000000e+05
    6.2998584472e-03    1.0120000000e+05
    6.3099656254e-03    1.0120000000e+05
    6.3197771087e-03    1.0120000000e+05
    6.3299024478e-03    1.0120000000e+05
    6.3397316262e-03    1.0120000000e+05
    6.3498853706e-03    1.0120000000e+05
    6.3597364351e-03    1.0120000000e+05
    6.3699008897e-03    1.0120000000e+05
    6.3797552139e-03    1.0120000000e+05
    6.3899210654e-03    1.0120000000e+05
    6.3997851685e-03    1.0120000000e+05
    6.4099542797e-03    1.0120000000e+05
    6.4198290929e-03    1.0120000000e+05
    6.4297104254e-03    1.0120000000e+05
    6.4399070106e-03    1.0120000000e+05
    6.4497892745e-03    1.0120000000e+05
    6.4599821344e-03    1.0120000000e+05
    6.4698797651e-03    1.0120000000e+05
    6.4797867090e-03    1.0120000000e+05
    6.4897071570e-03    1.0120000000e+05
    6.4999414608e-03    1.0120000000e+05
    6.5098791383e-03    1.0120000000e+05
    6.5198247321e-03    1.0120000000e+05
    6.5297763795e-03    1.0120000000e+05
    6.5397298895e-03    1.0120000000e+05
    6.5499958582e-03    1.0120000000e+05
    6.5599558875e-03    1.0120000000e+05
    6.5699121915e-03    1.0120000000e+05
    6.5798684955e-03    1.0120000000e+05
    6.5898289904e-03    1.0120000000e+05
    6.5998006612e-03    1.0120000000e+05
    6.6097793169e-03    1.0120000000e+05
    6.6197635606e-03    1.0120000000e+05
    6.6297468729e-03    1.0120000000e+05
    6.6397315823e-03    1.0120000000e+05
    6.6497228108e-03    1.0120000000e+05
    6.6597075202e-03    1.0120000000e+05
    6.6696959548e-03    1.0120000000e+05
    6.6796923056e-03    1.0120000000e+05
    6.6896970384e-03    1.0120000000e+05
    6.6997022368e-03    1.0120000000e+05
    6.7097069696e-03    1.0120000000e+05
    6.7197084427e-03    1.0120000000e+05
    6.7297215573e-03    1.0120000000e+05
    6.7397444509e-03    1.0120000000e+05
    6.7497650161e-03    1.0120000000e+05
    6.7597948946e-03    1.0120000000e+05
    6.7698308267e-03    1.0120000000e+05
    6.7798667587e-03    1.0120000000e+05
    6.7898971029e-03    1.0120000000e+05
    6.7999269813e-03    1.0120000000e+05
    6.8099591881e-03    1.0120000000e+05
    6.8196891807e-03    1.0120000000e+05
    6.8297302350e-03    1.0120000000e+05
    6.8397773430e-03    1.0120000000e+05
    6.8498300388e-03    1.0120000000e+05
    6.8598850630e-03    1.0120000000e+05
    6.8699396215e-03    1.0120000000e+05
    6.8799927831e-03    1.0120000000e+05
    6.8897302262e-03    1.0120000000e+05
    6.8997805938e-03    1.0120000000e+05
    6.9098295644e-03    1.0120000000e+05
    6.9198776037e-03    1.0120000000e+05
    6.9299265742e-03    1.0120000000e+05
    6.9399741478e-03    1.0120000000e+05
    6.9497078657e-03    1.0120000000e+05
    6.9597535767e-03    1.0120000000e+05
    6.9697978906e-03    1.0120000000e+05
    6.9798445329e-03    1.0120000000e+05
    6.9898939691e-03    1.0120000000e+05
    6.9999401458e-03    1.0120000000e+05
    7.0099886507e-03    1.0120000000e+05
    7.0197256282e-03    1.0120000000e+05
    7.0297778584e-03    1.0120000000e+05
    7.0398310199e-03    1.0120000000e+05
    7.0498907007e-03    1.0120000000e+05
    7.0599541068e-03    1.0120000000e+05
    7.0697125047e-03    1.0120000000e+05
    7.0797903463e-03    1.0120000000e+05
    7.0898626000e-03    1.0120000000e+05
    7.0999390446e-03    1.0120000000e+05
    7.1097123437e-03    1.0120000000e+05
    7.1198074147e-03    1.0120000000e+05
    7.1299094707e-03    1.0120000000e+05
    7.1397186257e-03    1.0120000000e+05
    7.1498448960e-03    1.0120000000e+05
    7.1599804796e-03    1.0120000000e+05
    7.1698059328e-03    1.0120000000e+05
    7.1799466386e-03    1.0120000000e+05
    7.1897776797e-03    1.0120000000e+05
    7.1999663487e-03    1.0120000000e+05
    7.2098411620e-03    1.0120000000e+05
    7.2197215632e-03    1.0120000000e+05
    7.2299367748e-03    1.0120000000e+05
    7.2398390621e-03    1.0120000000e+05
    7.2497464716e-03    1.0120000000e+05
    7.2599914856e-03    1.0120000000e+05
    7.2699300945e-03    1.0120000000e+05
    7.2798766196e-03    1.0120000000e+05
    7.2898301296e-03    1.0120000000e+05
    7.2997855023e-03    1.0120000000e+05
    7.3097399436e-03    1.0120000000e+05
    7.3196967132e-03    1.0120000000e+05
    7.3299752548e-03    1.0120000000e+05
    7.3399269022e-03    1.0120000000e+05
    7.3498720303e-03    1.0120000000e+05
    7.3599587195e-03    1.0120000000e+05
    7.3699853383e-03    1.0120000000e+05
    7.3799346574e-03    1.0120000000e+05
    7.3897824623e-03    1.0120000000e+05
    7.3998658918e-03    1.0120000000e+05
    7.4098114856e-03    1.0120000000e+05
    7.4199731462e-03    1.0120000000e+05
    7.4299615808e-03    1.0120000000e+05
    7.4397521093e-03    1.0120000000e+05
    7.4497247115e-03    1.0120000000e+05
    7.4598789215e-03    1.0120000000e+05
    7.4697979726e-03    1.0120000000e+05
    7.4798837304e-03    1.0120000000e+05
    7.4897026643e-03    1.0120000000e+05
    7.4996626936e-03    1.0120000000e+05
    7.5097652152e-03    1.0120000000e+05
    7.5195557438e-03    1.0120000000e+05
    7.5298990123e-03    1.0120000000e+05
    7.5398827903e-03    1.0120000000e+05
    7.5499508530e-03    1.0120000000e+05
    7.5596272945e-03    1.0120000000e+05
    7.5698392466e-03    1.0120000000e+05
    7.5796404853e-03    1.0120000000e+05
    7.5899683870e-03    1.0120000000e+05
    7.5998813845e-03    1.0120000000e+05
    7.6098595746e-03    1.0120000000e+05
    7.6199178584e-03    1.0120000000e+05
    7.6295342296e-03    1.0120000000e+05
    7.6396889053e-03    1.0120000000e+05
    7.6499190181e-03    1.0120000000e+05
    7.6597137377e-03    1.0120000000e+05
    7.6695666648e-03    1.0120000000e+05
    7.6799513772e-03    1.0120000000e+05
    7.6899272390e-03    1.0120000000e+05
    7.6999333687e-03    1.0120000000e+05
    7.7099925838e-03    1.0120000000e+05
    7.7195544727e-03    1.0120000000e+05
    7.7297179960e-03    1.0120000000e+05
    7.7394498512e-03    1.0120000000e+05
    7.7497269958e-03    1.0120000000e+05
    7.7595296316e-03    1.0120000000e+05
    7.7699166723e-03    1.0120000000e+05
    7.7798105776e-03    1.0120000000e+05
    7.7897980809e-03    1.0120000000e+05
    7.7997334301e-03    1.0120000000e+05
    7.8096706420e-03    1.0120000000e+05
    7.8196786344e-03    1.0120000000e+05
    7.8297490254e-03    1.0120000000e+05
    7.8398650512e-03    1.0120000000e+05
    7.8494371846e-03    1.0120000000e+05
    7.8596556559e-03    1.0120000000e+05
    7.8698573634e-03    1.0120000000e+05
    7.8795636073e-03    1.0120000000e+05
    7.8898500651e-03    1.0120000000e+05
    7.8995684162e-03    1.0120000000e+05
    7.9098809510e-03    1.0120000000e+05
    7.9194698483e-03    1.0120000000e+05
    7.9298391938e-03    1.0120000000e+05
    7.9396786168e-03    1.0120000000e+05
    7.9498859122e-03    1.0120000000e+05
    7.9599125311e-03    1.0120000000e+05
    7.9697081819e-03    1.0120000000e+05
    7.9799490049e-03    1.0120000000e+05
    7.9897325486e-03    1.0120000000e+05
    7.9999044538e-03    1.0120000000e+05
    8.0098193139e-03    1.0120000000e+05
    8.0198226497e-03    1.0120000000e+05
    8.0298818648e-03    1.0120000000e+05
    8.0399280414e-03    1.0120000000e+05
    8.0498801544e-03    1.0120000000e+05
    8.0599505454e-03    1.0120000000e+05
    8.0699902028e-03    1.0120000000e+05
    8.0798892304e-03    1.0120000000e+05
    8.0898692831e-03    1.0120000000e+05
    8.0998782068e-03    1.0120000000e+05
    8.1099653617e-03    1.0120000000e+05
    8.1199305132e-03    1.0120000000e+05
    8.1298155710e-03    1.0120000000e+05
    8.1398980692e-03    1.0120000000e+05
    8.1498548388e-03    1.0120000000e+05
    8.1597976387e-03    1.0120000000e+05
    8.1699853763e-03    1.0120000000e+05
    8.1799849868e-03    1.0120000000e+05
    8.1899827346e-03    1.0120000000e+05
    8.1999721006e-03    1.0120000000e+05
    8.2099102437e-03    1.0120000000e+05
    8.2197813317e-03    1.0120000000e+05
    8.2297818735e-03    1.0120000000e+05
    8.2399006933e-03    1.0120000000e+05
    8.2498751581e-03    1.0120000000e+05
    8.2599315792e-03    1.0120000000e+05
    8.2698166370e-03    1.0120000000e+05
    8.2797631621e-03    1.0120000000e+05
    8.2897692919e-03    1.0120000000e+05
    8.2998340949e-03    1.0120000000e+05
    8.3099361509e-03    1.0120000000e+05
    8.3198193461e-03    1.0120000000e+05
    8.3297481760e-03    1.0120000000e+05
    8.3399610594e-03    1.0120000000e+05
    8.3499541506e-03    1.0120000000e+05
    8.3599798381e-03    1.0120000000e+05
    8.3697503433e-03    1.0120000000e+05
    8.3798272535e-03    1.0120000000e+05
    8.3899209276e-03    1.0120000000e+05
    8.3997668698e-03    1.0120000000e+05
    8.4099182859e-03    1.0120000000e+05
    8.4198024124e-03    1.0120000000e+05
    8.4299724549e-03    1.0120000000e+05
    8.4399171174e-03    1.0120000000e+05
    8.4498524666e-03    1.0120000000e+05
    8.4598129615e-03    1.0120000000e+05
    8.4698032588e-03    1.0120000000e+05
    8.4797898307e-03    1.0120000000e+05
    8.4898145869e-03    1.0120000000e+05
    8.4998495877e-03    1.0120000000e+05
    8.5098845884e-03    1.0120000000e+05
    8.5199614987e-03    1.0120000000e+05
    8.5297739133e-03    1.0120000000e+05
    8.5398638621e-03    1.0120000000e+05
    8.5499798879e-03    1.0120000000e+05
    8.5598314181e-03    1.0120000000e+05
    8.5699772462e-03    1.0120000000e+05
    8.5798650980e-03    1.0120000000e+05
    8.5897529498e-03    1.0120000000e+05
    8.5999369621e-03    1.0120000000e+05
    8.6098629981e-03    1.0120000000e+05
    8.6197881028e-03    1.0120000000e+05
    8.6297309026e-03    1.0120000000e+05
    8.6399633437e-03    1.0120000000e+05
    8.6499312893e-03    1.0120000000e+05
    8.6599085480e-03    1.0120000000e+05
    8.6698895320e-03    1.0120000000e+05
    8.6798844859e-03    1.0120000000e+05
    8.6898962036e-03    1.0120000000e+05
    8.6999107152e-03    1.0120000000e+05
    8.7099280208e-03    1.0120000000e+05
    8.7199611589e-03    1.0120000000e+05
    8.7297279388e-03    1.0120000000e+05
    8.7397759780e-03    1.0120000000e+05
    8.7498277426e-03    1.0120000000e+05
    8.7598897517e-03    1.0120000000e+05
    8.7699685246e-03    1.0120000000e+05
    8.7797688320e-03    1.0120000000e+05
    8.7898494676e-03    1.0120000000e+05
    8.7999375537e-03    1.0120000000e+05
    8.8097611442e-03    1.0120000000e+05
    8.8198659942e-03    1.0120000000e+05
    8.8299689814e-03    1.0120000000e+05
    8.8398037478e-03    1.0120000000e+05
    8.8499309495e-03    1.0120000000e+05
    8.8597806171e-03    1.0120000000e+05
    8.8699040934e-03    1.0120000000e+05
    8.8797518983e-03    1.0120000000e+05
    8.8898958638e-03    1.0120000000e+05
    8.8997632265e-03    1.0120000000e+05
    8.9099118486e-03    1.0120000000e+05
    8.9197838679e-03    1.0120000000e+05
    8.9299427345e-03    1.0120000000e+05
    8.9398194104e-03    1.0120000000e+05
    8.9499782771e-03    1.0120000000e+05
    8.9598530903e-03    1.0120000000e+05
    8.9697297662e-03    1.0120000000e+05
    8.9798904955e-03    1.0120000000e+05
    8.9897690341e-03    1.0120000000e+05
    8.9999306947e-03    1.0120000000e+05
    9.0098110959e-03    1.0120000000e+05
    9.0199755505e-03    1.0120000000e+05
    9.0298568830e-03    1.0120000000e+05
    9.0397391468e-03    1.0120000000e+05
    9.0499045327e-03    1.0120000000e+05
    9.0597877279e-03    1.0120000000e+05
    9.0699549764e-03    1.0120000000e+05
    9.0798400342e-03    1.0120000000e+05
    9.0897260234e-03    1.0120000000e+05
    9.0998951346e-03    1.0120000000e+05
    9.1097820550e-03    1.0120000000e+05
    9.1199530289e-03    1.0120000000e+05
    9.1298418120e-03    1.0120000000e+05
    9.1397315264e-03    1.0120000000e+05
    9.1499034315e-03    1.0120000000e+05
    9.1597940773e-03    1.0120000000e+05
    9.1699678451e-03    1.0120000000e+05
    9.1798594221e-03    1.0120000000e+05
    9.1897509992e-03    1.0120000000e+05
    9.1999256983e-03    1.0120000000e+05
    9.2098172754e-03    1.0120000000e+05
    9.2199919745e-03    1.0120000000e+05
    9.2298854142e-03    1.0120000000e+05
    9.2397816479e-03    1.0120000000e+05
    9.2499656603e-03    1.0120000000e+05
    9.2598730698e-03    1.0120000000e+05
    9.2697814107e-03    1.0120000000e+05
    9.2799710110e-03    1.0120000000e+05
    9.2898774892e-03    1.0120000000e+05
    9.2997821048e-03    1.0120000000e+05
    9.3099698424e-03    1.0120000000e+05
    9.3198753893e-03    1.0120000000e+05
    9.3297827989e-03    1.0120000000e+05
    9.3399751931e-03    1.0120000000e+05
    9.3498844653e-03    1.0120000000e+05
    9.3597937375e-03    1.0120000000e+05
    9.3699852005e-03    1.0120000000e+05
    9.3798954040e-03    1.0120000000e+05
    9.3898065388e-03    1.0120000000e+05
    9.3997167423e-03    1.0120000000e+05
    9.4099109992e-03    1.0120000000e+05
    9.4198212028e-03    1.0120000000e+05
    9.4297314063e-03    1.0120000000e+05
    9.4399256632e-03    1.0120000000e+05
    9.4498377293e-03    1.0120000000e+05
    9.4597488642e-03    1.0120000000e+05
    9.4699440524e-03    1.0120000000e+05
    9.4798551872e-03    1.0120000000e+05
    9.4897672534e-03    1.0120000000e+05
    9.4999615103e-03    1.0120000000e+05
    9.5098735765e-03    1.0120000000e+05
    9.5197856426e-03    1.0120000000e+05
    9.5299817622e-03    1.0120000000e+05
    9.5398938283e-03    1.0120000000e+05
    9.5498058945e-03    1.0120000000e+05
    9.5597179607e-03    1.0120000000e+05
    9.5699140802e-03    1.0120000000e+05
    9.5798270777e-03    1.0120000000e+05
    9.5897400752e-03    1.0120000000e+05
    9.5999361947e-03    1.0120000000e+05
    9.6098491922e-03    1.0120000000e+05
    9.6197631210e-03    1.0120000000e+05
    9.6299601719e-03    1.0120000000e+05
    9.6398731694e-03    1.0120000000e+05
    9.6497870982e-03    1.0120000000e+05
    9.6599841490e-03    1.0120000000e+05
    9.6698980778e-03    1.0120000000e+05
    9.6798120067e-03    1.0120000000e+05
    9.6897268668e-03    1.0120000000e+05
    9.6999239177e-03    1.0120000000e+05
    9.7098387778e-03    1.0120000000e+05
    9.7197536379e-03    1.0120000000e+05
    9.7299516201e-03    1.0120000000e+05
    9.7398664802e-03    1.0120000000e+05
    9.7497822717e-03    1.0120000000e+05
    9.7599802539e-03    1.0120000000e+05
    9.7698960453e-03    1.0120000000e+05
    9.7798118368e-03    1.0120000000e+05
    9.7897276282e-03    1.0120000000e+05
    9.7999274731e-03    1.0120000000e+05
    9.8098432645e-03    1.0120000000e+05
    9.8197599873e-03    1.0120000000e+05
    9.8299607635e-03    1.0120000000e+05
    9.8398774862e-03    1.0120000000e+05
    9.8497951403e-03    1.0120000000e+05
    9.8599959165e-03    1.0120000000e+05
    9.8699145019e-03    1.0120000000e+05
    9.8798321560e-03    1.0120000000e+05
    9.8897507414e-03    1.0120000000e+05
    9.8999515176e-03    1.0120000000e+05
    9.9098701030e-03    1.0120000000e+05
    9.9197886884e-03    1.0120000000e+05
    9.9299913272e-03    1.0120000000e+05
    9.9399117753e-03    1.0120000000e+05
    9.9498312920e-03    1.0120000000e+05
    9.9597517401e-03    1.0120000000e+05
    9.9699553102e-03    1.0120000000e+05
    9.9798757583e-03    1.0120000000e+05
    9.9897971377e-03    1.0120000000e+05
    9.9997185171e-03    1.0120000000e+05
    1.0009923019e-02    1.0120000000e+05
    1.0019844398e-02    1.0120000000e+05
    1.0029765777e-02    1.0120000000e+05
    1.0039971210e-02    1.0120000000e+05
    1.0049892589e-02    1.0120000000e+05
    1.0059815831e-02    1.0120000000e+05
    1.0069739074e-02    1.0120000000e+05
    1.0079946369e-02    1.0120000000e+05
    1.0089869611e-02    1.0120000000e+05
    1.0099793784e-02    1.0120000000e+05
    1.0109717958e-02    1.0120000000e+05
    1.0119925253e-02    1.0120000000e+05
    1.0129850358e-02    1.0120000000e+05
    1.0139774531e-02    1.0120000000e+05
    1.0149982758e-02    1.0120000000e+05
    1.0159908794e-02    1.0120000000e+05
    1.0169834830e-02    1.0120000000e+05
    1.0179760866e-02    1.0120000000e+05
    1.0189970024e-02    1.0120000000e+05
    1.0199896991e-02    1.0120000000e+05
    1.0209823959e-02    1.0120000000e+05
    1.0219750926e-02    1.0120000000e+05
    1.0229961015e-02    1.0120000000e+05
    1.0239888914e-02    1.0120000000e+05
    1.0249816813e-02    1.0120000000e+05
    1.0259744711e-02    1.0120000000e+05
    1.0269956663e-02    1.0120000000e+05
    1.0279885493e-02    1.0120000000e+05
    1.0289815255e-02    1.0120000000e+05
    1.0299744084e-02    1.0120000000e+05
    1.0309957899e-02    1.0120000000e+05
    1.0319886729e-02    1.0120000000e+05
    1.0329816490e-02    1.0120000000e+05
    1.0339747183e-02    1.0120000000e+05
    1.0349960998e-02    1.0120000000e+05
    1.0359891690e-02    1.0120000000e+05
    1.0369822383e-02    1.0120000000e+05
    1.0379754007e-02    1.0120000000e+05
    1.0389969684e-02    1.0120000000e+05
    1.0399901308e-02    1.0120000000e+05
    1.0409833863e-02    1.0120000000e+05
    1.0419766419e-02    1.0120000000e+05
    1.0429983027e-02    1.0120000000e+05
    1.0439915583e-02    1.0120000000e+05
    1.0449849069e-02    1.0120000000e+05
    1.0459782556e-02    1.0120000000e+05
    1.0469999164e-02    1.0120000000e+05
    1.0479933582e-02    1.0120000000e+05
    1.0489868000e-02    1.0120000000e+05
    1.0499802418e-02    1.0120000000e+05
    1.0509736836e-02    1.0120000000e+05
    1.0519956239e-02    1.0120000000e+05
    1.0529891588e-02    1.0120000000e+05
    1.0539826937e-02    1.0120000000e+05
    1.0549762286e-02    1.0120000000e+05
    1.0559981689e-02    1.0120000000e+05
    1.0569917969e-02    1.0120000000e+05
    1.0579855181e-02    1.0120000000e+05
    1.0589791462e-02    1.0120000000e+05
    1.0599727742e-02    1.0120000000e+05
    1.0609949008e-02    1.0120000000e+05
    1.0619887151e-02    1.0120000000e+05
    1.0629824363e-02    1.0120000000e+05
    1.0639762506e-02    1.0120000000e+05
    1.0649983771e-02    1.0120000000e+05
    1.0659922846e-02    1.0120000000e+05
    1.0669860989e-02    1.0120000000e+05
    1.0679800063e-02    1.0120000000e+05
    1.0689739138e-02    1.0120000000e+05
    1.0699962266e-02    1.0120000000e+05
    1.0709901340e-02    1.0120000000e+05
    1.0719840415e-02    1.0120000000e+05
    1.0729780421e-02    1.0120000000e+05
    1.0739720426e-02    1.0120000000e+05
    1.0749945417e-02    1.0120000000e+05
    1.0759885423e-02    1.0120000000e+05
    1.0769826360e-02    1.0120000000e+05
    1.0779767297e-02    1.0120000000e+05
    1.0789992288e-02    1.0120000000e+05
    1.0799933225e-02    1.0120000000e+05
    1.0809875093e-02    1.0120000000e+05
    1.0819816031e-02    1.0120000000e+05
    1.0829758830e-02    1.0120000000e+05
    1.0839984752e-02    1.0120000000e+05
    1.0849926621e-02    1.0120000000e+05
    1.0859868489e-02    1.0120000000e+05
    1.0869811289e-02    1.0120000000e+05
    1.0879754089e-02    1.0120000000e+05
    1.0889980942e-02    1.0120000000e+05
    1.0899923742e-02    1.0120000000e+05
    1.0909867473e-02    1.0120000000e+05
    1.0919810273e-02    1.0120000000e+05
    1.0929754004e-02    1.0120000000e+05
    1.0939981788e-02    1.0120000000e+05
    1.0949926451e-02    1.0120000000e+05
    1.0959870182e-02    1.0120000000e+05
    1.0969813913e-02    1.0120000000e+05
    1.0979758576e-02    1.0120000000e+05
    1.0989987291e-02    1.0120000000e+05
    1.0999931954e-02    1.0120000000e+05
    1.1009876616e-02    1.0120000000e+05
    1.1019821279e-02    1.0120000000e+05
    1.1029765941e-02    1.0120000000e+05
    1.1039994657e-02    1.0120000000e+05
    1.1049940251e-02    1.0120000000e+05
    1.1059885845e-02    1.0120000000e+05
    1.1069831438e-02    1.0120000000e+05
    1.1079777032e-02    1.0120000000e+05
    1.1089722626e-02    1.0120000000e+05
    1.1099952273e-02    1.0120000000e+05
    1.1109897867e-02    1.0120000000e+05
    1.1119843461e-02    1.0120000000e+05
    1.1129789986e-02    1.0120000000e+05
    1.1139735579e-02    1.0120000000e+05
    1.1149966158e-02    1.0120000000e+05
    1.1159912683e-02    1.0120000000e+05
    1.1169859208e-02    1.0120000000e+05
    1.1179804802e-02    1.0120000000e+05
    1.1189751327e-02    1.0120000000e+05
    1.1199981906e-02    1.0120000000e+05
    1.1209928431e-02    1.0120000000e+05
    1.1219874956e-02    1.0120000000e+05
    1.1229821481e-02    1.0120000000e+05
    1.1239768006e-02    1.0120000000e+05
    1.1249998584e-02    1.0120000000e+05
    1.1259945109e-02    1.0120000000e+05
    1.1269891635e-02    1.0120000000e+05
    1.1279838160e-02    1.0120000000e+05
    1.1289784685e-02    1.0120000000e+05
    1.1299731210e-02    1.0120000000e+05
    1.1309961788e-02    1.0120000000e+05
    1.1319908313e-02    1.0120000000e+05
    1.1329854839e-02    1.0120000000e+05
    1.1339802295e-02    1.0120000000e+05
    1.1349748820e-02    1.0120000000e+05
    1.1359979399e-02    1.0120000000e+05
    1.1369925924e-02    1.0120000000e+05
    1.1379872449e-02    1.0120000000e+05
    1.1389818974e-02    1.0120000000e+05
    1.1399765499e-02    1.0120000000e+05
    1.1409996077e-02    1.0120000000e+05
    1.1419942603e-02    1.0120000000e+05
    1.1429889128e-02    1.0120000000e+05
    1.1439835653e-02    1.0120000000e+05
    1.1449782178e-02    1.0120000000e+05
    1.1459727772e-02    1.0120000000e+05
    1.1469958350e-02    1.0120000000e+05
    1.1479904875e-02    1.0120000000e+05
    1.1489851400e-02    1.0120000000e+05
    1.1499796994e-02    1.0120000000e+05
    1.1509743519e-02    1.0120000000e+05
    1.1519974098e-02    1.0120000000e+05
    1.1529919691e-02    1.0120000000e+05
    1.1539866216e-02    1.0120000000e+05
    1.1549811810e-02    1.0120000000e+05
    1.1559758335e-02    1.0120000000e+05
    1.1569987983e-02    1.0120000000e+05
    1.1579934508e-02    1.0120000000e+05
    1.1589880101e-02    1.0120000000e+05
    1.1599825695e-02    1.0120000000e+05
    1.1609772220e-02    1.0120000000e+05
    1.1619717814e-02    1.0120000000e+05
    1.1629947461e-02    1.0120000000e+05
    1.1639893055e-02    1.0120000000e+05
    1.1649838649e-02    1.0120000000e+05
    1.1659784243e-02    1.0120000000e+05
    1.1669729836e-02    1.0120000000e+05
    1.1679959483e-02    1.0120000000e+05
    1.1689905077e-02    1.0120000000e+05
    1.1699850671e-02    1.0120000000e+05
    1.1709795333e-02    1.0120000000e+05
    1.1719740927e-02    1.0120000000e+05
    1.1729970574e-02    1.0120000000e+05
    1.1739916168e-02    1.0120000000e+05
    1.1749861762e-02    1.0120000000e+05
    1.1759806424e-02    1.0120000000e+05
    1.1769752018e-02    1.0120000000e+05
    1.1779982597e-02    1.0120000000e+05
    1.1789928190e-02    1.0120000000e+05
    1.1799873784e-02    1.0120000000e+05
    1.1809821241e-02    1.0120000000e+05
    1.1819766834e-02    1.0120000000e+05
    1.1829998344e-02    1.0120000000e+05
    1.1839945801e-02    1.0120000000e+05
    1.1849894188e-02    1.0120000000e+05
    1.1859842576e-02    1.0120000000e+05
    1.1869791895e-02    1.0120000000e+05
    1.1879742146e-02    1.0120000000e+05
    1.1889976449e-02    1.0120000000e+05
    1.1899926700e-02    1.0120000000e+05
    1.1909876950e-02    1.0120000000e+05
    1.1919829063e-02    1.0120000000e+05
    1.1929781176e-02    1.0120000000e+05
    1.1939734221e-02    1.0120000000e+05
    1.1949973181e-02    1.0120000000e+05
    1.1959929019e-02    1.0120000000e+05
    1.1969885789e-02    1.0120000000e+05
    1.1979844421e-02    1.0120000000e+05
    1.1989802122e-02    1.0120000000e+05
    1.1999760754e-02    1.0120000000e+05
    1.2009721249e-02    1.0120000000e+05
    1.2019967660e-02    1.0120000000e+05
    1.2029928155e-02    1.0120000000e+05
    1.2039890513e-02    1.0120000000e+05
    1.2049855664e-02    1.0120000000e+05
    1.2059821747e-02    1.0120000000e+05
    1.2069787830e-02    1.0120000000e+05
    1.2079754844e-02    1.0120000000e+05
    1.2089723721e-02    1.0120000000e+05
    1.2099980377e-02    1.0120000000e+05
    1.2109951116e-02    1.0120000000e+05
    1.2119921856e-02    1.0120000000e+05
    1.2129895389e-02    1.0120000000e+05
    1.2139874510e-02    1.0120000000e+05
    1.2149851769e-02    1.0120000000e+05
    1.2159829959e-02    1.0120000000e+05
    1.2169810012e-02    1.0120000000e+05
    1.2179796584e-02    1.0120000000e+05
    1.2189783156e-02    1.0120000000e+05
    1.2199767865e-02    1.0120000000e+05
    1.2209756300e-02    1.0120000000e+05
    1.2219748460e-02    1.0120000000e+05
    1.2229743414e-02    1.0120000000e+05
    1.2239734642e-02    1.0120000000e+05
    1.2249726802e-02    1.0120000000e+05
    1.2259724550e-02    1.0120000000e+05
    1.2269728817e-02    1.0120000000e+05
    1.2279729359e-02    1.0120000000e+05
    1.2289729901e-02    1.0120000000e+05
    1.2299736030e-02    1.0120000000e+05
    1.2309747748e-02    1.0120000000e+05
    1.2319759466e-02    1.0120000000e+05
    1.2329772115e-02    1.0120000000e+05
    1.2339788489e-02    1.0120000000e+05
    1.2349808589e-02    1.0120000000e+05
    1.2359829620e-02    1.0120000000e+05
    1.2369849719e-02    1.0120000000e+05
    1.2379875407e-02    1.0120000000e+05
    1.2389907613e-02    1.0120000000e+05
    1.2399941683e-02    1.0120000000e+05
    1.2409974821e-02    1.0120000000e+05
    1.2419722043e-02    1.0120000000e+05
    1.2429761700e-02    1.0120000000e+05
    1.2439806946e-02    1.0120000000e+05
    1.2449854054e-02    1.0120000000e+05
    1.2459900230e-02    1.0120000000e+05
    1.2469949201e-02    1.0120000000e+05
    1.2479715981e-02    1.0120000000e+05
    1.2489772402e-02    1.0120000000e+05
    1.2499832548e-02    1.0120000000e+05
    1.2509897351e-02    1.0120000000e+05
    1.2519964017e-02    1.0120000000e+05
    1.2529743835e-02    1.0120000000e+05
    1.2539813295e-02    1.0120000000e+05
    1.2549885549e-02    1.0120000000e+05
    1.2559963390e-02    1.0120000000e+05
    1.2569756247e-02    1.0120000000e+05
    1.2579836883e-02    1.0120000000e+05
    1.2589917518e-02    1.0120000000e+05
    1.2599715032e-02    1.0120000000e+05
    1.2609808706e-02    1.0120000000e+05
    1.2619905174e-02    1.0120000000e+05
    1.2629713863e-02    1.0120000000e+05
    1.2639813125e-02    1.0120000000e+05
    1.2649913318e-02    1.0120000000e+05
    1.2659727596e-02    1.0120000000e+05
    1.2669835240e-02    1.0120000000e+05
    1.2679946609e-02    1.0120000000e+05
    1.2689769268e-02    1.0120000000e+05
    1.2699882500e-02    1.0120000000e+05
    1.2709997594e-02    1.0120000000e+05
    1.2719825841e-02    1.0120000000e+05
    1.2729951181e-02    1.0120000000e+05
    1.2739790604e-02    1.0120000000e+05
    1.2749918737e-02    1.0120000000e+05
    1.2759758160e-02    1.0120000000e+05
    1.2769890949e-02    1.0120000000e+05
    1.2779739685e-02    1.0120000000e+05
    1.2789881788e-02    1.0120000000e+05
    1.2799737975e-02    1.0120000000e+05
    1.2809882872e-02    1.0120000000e+05
    1.2819739059e-02    1.0120000000e+05
    1.2829889543e-02    1.0120000000e+05
    1.2839755043e-02    1.0120000000e+05
    1.2849914841e-02    1.0120000000e+05
    1.2859785929e-02    1.0120000000e+05
    1.2869947590e-02    1.0120000000e+05
    1.2879818678e-02    1.0120000000e+05
    1.2889983132e-02    1.0120000000e+05
    1.2899865396e-02    1.0120000000e+05
    1.2909752317e-02    1.0120000000e+05
    1.2919929810e-02    1.0120000000e+05
    1.2929819524e-02    1.0120000000e+05
    1.2939998880e-02    1.0120000000e+05
    1.2949890457e-02    1.0120000000e+05
    1.2959787622e-02    1.0120000000e+05
    1.2969980016e-02    1.0120000000e+05
    1.2979879044e-02    1.0120000000e+05
    1.2989779003e-02    1.0120000000e+05
    1.2999975123e-02    1.0120000000e+05
    1.3009883463e-02    1.0120000000e+05
    1.3019796461e-02    1.0120000000e+05
    1.3029715978e-02    1.0120000000e+05
    1.3039924204e-02    1.0120000000e+05
    1.3049841858e-02    1.0120000000e+05
    1.3059763238e-02    1.0120000000e+05
    1.3069984503e-02    1.0120000000e+05
    1.3079916127e-02    1.0120000000e+05
    1.3089852408e-02    1.0120000000e+05
    1.3099789619e-02    1.0120000000e+05
    1.3109724969e-02    1.0120000000e+05
    1.3119956478e-02    1.0120000000e+05
    1.3129903935e-02    1.0120000000e+05
    1.3139854185e-02    1.0120000000e+05
    1.3149805367e-02    1.0120000000e+05
    1.3159756549e-02    1.0120000000e+05
    1.3169708662e-02    1.0120000000e+05
    1.3179950416e-02    1.0120000000e+05
    1.3189907186e-02    1.0120000000e+05
    1.3199867681e-02    1.0120000000e+05
    1.3209829107e-02    1.0120000000e+05
    1.3219791465e-02    1.0120000000e+05
    1.3229753822e-02    1.0120000000e+05
    1.3239717111e-02    1.0120000000e+05
    1.3249977492e-02    1.0120000000e+05
    1.3259949163e-02    1.0120000000e+05
    1.3269918971e-02    1.0120000000e+05
    1.3279882260e-02    1.0120000000e+05
    1.3289845549e-02    1.0120000000e+05
    1.3299803250e-02    1.0120000000e+05
    1.3309754431e-02    1.0120000000e+05
    1.3319991529e-02    1.0120000000e+05
    1.3329928741e-02    1.0120000000e+05
    1.3339859433e-02    1.0120000000e+05
    1.3349786401e-02    1.0120000000e+05
    1.3359711505e-02    1.0120000000e+05
    1.3369728811e-02    1.0120000000e+05
    1.3379950076e-02    1.0120000000e+05
    1.3389755040e-02    1.0120000000e+05
    1.3399736956e-02    1.0120000000e+05
    1.3409896754e-02    1.0120000000e+05
    1.3419907540e-02    1.0120000000e+05
    1.3429748826e-02    1.0120000000e+05
    1.3439746574e-02    1.0120000000e+05
    1.3449893333e-02    1.0120000000e+05
    1.3459846377e-02    1.0120000000e+05
    1.3469929807e-02    1.0120000000e+05
    1.3479794376e-02    1.0120000000e+05
    1.3489765115e-02    1.0120000000e+05
    1.3499853201e-02    1.0120000000e+05
    1.3509648852e-02    1.0120000000e+05
    1.3519880362e-02    1.0120000000e+05
    1.3529717922e-02    1.0120000000e+05
    1.3539765961e-02    1.0120000000e+05
    1.3549833558e-02    1.0120000000e+05
    1.3559895568e-02    1.0120000000e+05
    1.3569989242e-02    1.0120000000e+05
    1.3579828665e-02    1.0120000000e+05
    1.3589979149e-02    1.0120000000e+05
    1.3599854894e-02    1.0120000000e+05
    1.3609736226e-02    1.0120000000e+05
    1.3619914651e-02    1.0120000000e+05
    1.3629809022e-02    1.0120000000e+05
    1.3639999554e-02    1.0120000000e+05
    1.3649904169e-02    1.0120000000e+05
    1.3659814373e-02    1.0120000000e+05
    1.3669728301e-02    1.0120000000e+05
    1.3679937460e-02    1.0120000000e+05
    1.3689857908e-02    1.0120000000e+05
    1.3699782081e-02    1.0120000000e+05
    1.3709999621e-02    1.0120000000e+05
    1.3719926588e-02    1.0120000000e+05
    1.3729854487e-02    1.0120000000e+05
    1.3739783317e-02    1.0120000000e+05
    1.3749712147e-02    1.0120000000e+05
    1.3759933412e-02    1.0120000000e+05
    1.3769862242e-02    1.0120000000e+05
    1.3779792003e-02    1.0120000000e+05
    1.3789720833e-02    1.0120000000e+05
    1.3799941167e-02    1.0120000000e+05
    1.3809869997e-02    1.0120000000e+05
    1.3819797896e-02    1.0120000000e+05
    1.3829726726e-02    1.0120000000e+05
    1.3839947060e-02    1.0120000000e+05
    1.3849874958e-02    1.0120000000e+05
    1.3859802857e-02    1.0120000000e+05
    1.3869729824e-02    1.0120000000e+05
    1.3879949227e-02    1.0120000000e+05
    1.3889876194e-02    1.0120000000e+05
    1.3899803162e-02    1.0120000000e+05
    1.3909729198e-02    1.0120000000e+05
    1.3919947669e-02    1.0120000000e+05
    1.3929873705e-02    1.0120000000e+05
    1.3939799741e-02    1.0120000000e+05
    1.3949725777e-02    1.0120000000e+05
    1.3959942386e-02    1.0120000000e+05
    1.3969867490e-02    1.0120000000e+05
    1.3979791664e-02    1.0120000000e+05
    1.3989716768e-02    1.0120000000e+05
    1.3999932446e-02    1.0120000000e+05
    1.4009856619e-02    1.0120000000e+05
    1.4019779861e-02    1.0120000000e+05
    1.4029994607e-02    1.0120000000e+05
    1.4039917849e-02    1.0120000000e+05
    1.4049840160e-02    1.0120000000e+05
    1.4059762470e-02    1.0120000000e+05
    1.4069976285e-02    1.0120000000e+05
    1.4079898596e-02    1.0120000000e+05
    1.4089819975e-02    1.0120000000e+05
    1.4099741355e-02    1.0120000000e+05
    1.4109953307e-02    1.0120000000e+05
    1.4119874686e-02    1.0120000000e+05
    1.4129794203e-02    1.0120000000e+05
    1.4139714651e-02    1.0120000000e+05
    1.4149925672e-02    1.0120000000e+05
    1.4159845188e-02    1.0120000000e+05
    1.4169764705e-02    1.0120000000e+05
    1.4179974794e-02    1.0120000000e+05
    1.4189893380e-02    1.0120000000e+05
    1.4199811965e-02    1.0120000000e+05
    1.4209730551e-02    1.0120000000e+05
    1.4219939709e-02    1.0120000000e+05
    1.4229857363e-02    1.0120000000e+05
    1.4239775017e-02    1.0120000000e+05
    1.4249984175e-02    1.0120000000e+05
    1.4259900898e-02    1.0120000000e+05
    1.4269817621e-02    1.0120000000e+05
    1.4279734343e-02    1.0120000000e+05
    1.4289942570e-02    1.0120000000e+05
    1.4299858361e-02    1.0120000000e+05
    1.4309775084e-02    1.0120000000e+05
    1.4319983311e-02    1.0120000000e+05
    1.4329900965e-02    1.0120000000e+05
    1.4339818619e-02    1.0120000000e+05
    1.4349736273e-02    1.0120000000e+05
    1.4359946363e-02    1.0120000000e+05
    1.4369866811e-02    1.0120000000e+05
    1.4379790053e-02    1.0120000000e+05
    1.4389716089e-02    1.0120000000e+05
    1.4399935491e-02    1.0120000000e+05
    1.4409863390e-02    1.0120000000e+05
    1.4419791289e-02    1.0120000000e+05
    1.4429722913e-02    1.0120000000e+05
    1.4439951628e-02    1.0120000000e+05
    1.4449894428e-02    1.0120000000e+05
    1.4459840022e-02    1.0120000000e+05
    1.4469788410e-02    1.0120000000e+05
    1.4479738660e-02    1.0120000000e+05
    1.4489983208e-02    1.0120000000e+05
    1.4499937184e-02    1.0120000000e+05
    1.4509893954e-02    1.0120000000e+05
    1.4519854449e-02    1.0120000000e+05
    1.4529815875e-02    1.0120000000e+05
    1.4539778233e-02    1.0120000000e+05
    1.4549741521e-02    1.0120000000e+05
    1.4559996314e-02    1.0120000000e+05
    1.4569958672e-02    1.0120000000e+05
    1.4579921030e-02    1.0120000000e+05
    1.4589885250e-02    1.0120000000e+05
    1.4599849470e-02    1.0120000000e+05
    1.4609815553e-02    1.0120000000e+05
    1.4619782567e-02    1.0120000000e+05
    1.4629751444e-02    1.0120000000e+05
    1.4639721252e-02    1.0120000000e+05
    1.4649985358e-02    1.0120000000e+05
    1.4659957029e-02    1.0120000000e+05
    1.4669930562e-02    1.0120000000e+05
    1.4679905027e-02    1.0120000000e+05
    1.4689881355e-02    1.0120000000e+05
    1.4699858613e-02    1.0120000000e+05
    1.4709836803e-02    1.0120000000e+05
    1.4719816856e-02    1.0120000000e+05
    1.4729797840e-02    1.0120000000e+05
    1.4739779755e-02    1.0120000000e+05
    1.4749762602e-02    1.0120000000e+05
    1.4759747311e-02    1.0120000000e+05
    1.4769732021e-02    1.0120000000e+05
    1.4779718593e-02    1.0120000000e+05
    1.4789999463e-02    1.0120000000e+05
    1.4799987897e-02    1.0120000000e+05
    1.4809976332e-02    1.0120000000e+05
    1.4819965698e-02    1.0120000000e+05
    1.4829955995e-02    1.0120000000e+05
    1.4839947224e-02    1.0120000000e+05
    1.4849939384e-02    1.0120000000e+05
    1.4859931543e-02    1.0120000000e+05
    1.4869923703e-02    1.0120000000e+05
    1.4879917726e-02    1.0120000000e+05
    1.4889910817e-02    1.0120000000e+05
    1.4899905771e-02    1.0120000000e+05
    1.4909899794e-02    1.0120000000e+05
    1.4919894747e-02    1.0120000000e+05
    1.4929890633e-02    1.0120000000e+05
    1.4939886518e-02    1.0120000000e+05
    1.4949882403e-02    1.0120000000e+05
    1.4959878288e-02    1.0120000000e+05
    1.4969874173e-02    1.0120000000e+05
    1.4979870990e-02    1.0120000000e+05
    1.4989867806e-02    1.0120000000e+05
    1.4999865554e-02    1.0120000000e+05
    1.5009862371e-02    1.0120000000e+05
    1.5019860119e-02    1.0120000000e+05
    1.5029856935e-02    1.0120000000e+05
    1.5039855614e-02    1.0120000000e+05
    1.5049853362e-02    1.0120000000e+05
    1.5059851110e-02    1.0120000000e+05
    1.5069849789e-02    1.0120000000e+05
    1.5079848468e-02    1.0120000000e+05
    1.5089847147e-02    1.0120000000e+05
    1.5099846758e-02    1.0120000000e+05
    1.5109845437e-02    1.0120000000e+05
    1.5119845048e-02    1.0120000000e+05
    1.5129844658e-02    1.0120000000e+05
    1.5139844269e-02    1.0120000000e+05
    1.5149843879e-02    1.0120000000e+05
    1.5159844421e-02    1.0120000000e+05
    1.5169844963e-02    1.0120000000e+05
    1.5179845504e-02    1.0120000000e+05
    1.5189846046e-02    1.0120000000e+05
    1.5199847519e-02    1.0120000000e+05
    1.5209848993e-02    1.0120000000e+05
    1.5219850466e-02    1.0120000000e+05
    1.5229852870e-02    1.0120000000e+05
    1.5239854343e-02    1.0120000000e+05
    1.5249856748e-02    1.0120000000e+05
    1.5259860083e-02    1.0120000000e+05
    1.5269862488e-02    1.0120000000e+05
    1.5279865824e-02    1.0120000000e+05
    1.5289869159e-02    1.0120000000e+05
    1.5299873427e-02    1.0120000000e+05
    1.5309878625e-02    1.0120000000e+05
    1.5319882892e-02    1.0120000000e+05
    1.5329888090e-02    1.0120000000e+05
    1.5339894220e-02    1.0120000000e+05
    1.5349900350e-02    1.0120000000e+05
    1.5359906480e-02    1.0120000000e+05
    1.5369913541e-02    1.0120000000e+05
    1.5379920602e-02    1.0120000000e+05
    1.5389928594e-02    1.0120000000e+05
    1.5399936587e-02    1.0120000000e+05
    1.5409945510e-02    1.0120000000e+05
    1.5419954434e-02    1.0120000000e+05
    1.5429964289e-02    1.0120000000e+05
    1.5439974144e-02    1.0120000000e+05
    1.5449983999e-02    1.0120000000e+05
    1.5459995717e-02    1.0120000000e+05
    1.5469712205e-02    1.0120000000e+05
    1.5479723923e-02    1.0120000000e+05
    1.5489736572e-02    1.0120000000e+05
    1.5499750152e-02    1.0120000000e+05
    1.5509763733e-02    1.0120000000e+05
    1.5519778244e-02    1.0120000000e+05
    1.5529793687e-02    1.0120000000e+05
    1.5539809130e-02    1.0120000000e+05
    1.5549824573e-02    1.0120000000e+05
    1.5559840947e-02    1.0120000000e+05
    1.5569858253e-02    1.0120000000e+05
    1.5579876490e-02    1.0120000000e+05
    1.5589894727e-02    1.0120000000e+05
    1.5599913895e-02    1.0120000000e+05
    1.5609933063e-02    1.0120000000e+05
    1.5619954094e-02    1.0120000000e+05
    1.5629975125e-02    1.0120000000e+05
    1.5639996156e-02    1.0120000000e+05
    1.5649722889e-02    1.0120000000e+05
    1.5659745783e-02    1.0120000000e+05
    1.5669770539e-02    1.0120000000e+05
    1.5679793432e-02    1.0120000000e+05
    1.5689818189e-02    1.0120000000e+05
    1.5699844807e-02    1.0120000000e+05
    1.5709869564e-02    1.0120000000e+05
    1.5719896182e-02    1.0120000000e+05
    1.5729924664e-02    1.0120000000e+05
    1.5739953145e-02    1.0120000000e+05
    1.5749981627e-02    1.0120000000e+05
    1.5759715810e-02    1.0120000000e+05
    1.5769744292e-02    1.0120000000e+05
    1.5779776499e-02    1.0120000000e+05
    1.5789806843e-02    1.0120000000e+05
    1.5799839050e-02    1.0120000000e+05
    1.5809871256e-02    1.0120000000e+05
    1.5819905326e-02    1.0120000000e+05
    1.5829939395e-02    1.0120000000e+05
    1.5839975327e-02    1.0120000000e+05
    1.5849715099e-02    1.0120000000e+05
    1.5859751031e-02    1.0120000000e+05
    1.5869788826e-02    1.0120000000e+05
    1.5879824758e-02    1.0120000000e+05
    1.5889864415e-02    1.0120000000e+05
    1.5899902210e-02    1.0120000000e+05
    1.5909941867e-02    1.0120000000e+05
    1.5919983387e-02    1.0120000000e+05
    1.5929728746e-02    1.0120000000e+05
    1.5939770266e-02    1.0120000000e+05
    1.5949813649e-02    1.0120000000e+05
    1.5959857032e-02    1.0120000000e+05
    1.5969900414e-02    1.0120000000e+05
    1.5979945660e-02    1.0120000000e+05
    1.5989990905e-02    1.0120000000e+05
    1.5999741852e-02    1.0120000000e+05
    1.6009787098e-02    1.0120000000e+05
    1.6019836068e-02    1.0120000000e+05
    1.6029883176e-02    1.0120000000e+05
    1.6039934009e-02    1.0120000000e+05
    1.6049982980e-02    1.0120000000e+05
    1.6059737653e-02    1.0120000000e+05
    1.6069788486e-02    1.0120000000e+05
    1.6079841182e-02    1.0120000000e+05
    1.6089893878e-02    1.0120000000e+05
    1.6099946573e-02    1.0120000000e+05
    1.6109704971e-02    1.0120000000e+05
    1.6119759530e-02    1.0120000000e+05
    1.6129815951e-02    1.0120000000e+05
    1.6139872372e-02    1.0120000000e+05
    1.6149928793e-02    1.0120000000e+05
    1.6159987077e-02    1.0120000000e+05
    1.6169749200e-02    1.0120000000e+05
    1.6179807484e-02    1.0120000000e+05
    1.6189867631e-02    1.0120000000e+05
    1.6199929640e-02    1.0120000000e+05
    1.6209989786e-02    1.0120000000e+05
    1.6219755635e-02    1.0120000000e+05
    1.6229819506e-02    1.0120000000e+05
    1.6239881516e-02    1.0120000000e+05
    1.6249945387e-02    1.0120000000e+05
    1.6259714961e-02    1.0120000000e+05
    1.6269780695e-02    1.0120000000e+05
    1.6279846430e-02    1.0120000000e+05
    1.6289914027e-02    1.0120000000e+05
    1.6299981624e-02    1.0120000000e+05
    1.6309753060e-02    1.0120000000e+05
    1.6319822520e-02    1.0120000000e+05
    1.6329891980e-02    1.0120000000e+05
    1.6339961439e-02    1.0120000000e+05
    1.6349736601e-02    1.0120000000e+05
    1.6359807923e-02    1.0120000000e+05
    1.6369881108e-02    1.0120000000e+05
    1.6379954293e-02    1.0120000000e+05
    1.6389731318e-02    1.0120000000e+05
    1.6399804503e-02    1.0120000000e+05
    1.6409879550e-02    1.0120000000e+05
    1.6419956461e-02    1.0120000000e+05
    1.6429735348e-02    1.0120000000e+05
    1.6439812258e-02    1.0120000000e+05
    1.6449891031e-02    1.0120000000e+05
    1.6459967941e-02    1.0120000000e+05
    1.6469750553e-02    1.0120000000e+05
    1.6479829326e-02    1.0120000000e+05
    1.6489909962e-02    1.0120000000e+05
    1.6499990597e-02    1.0120000000e+05
    1.6509775072e-02    1.0120000000e+05
    1.6519855708e-02    1.0120000000e+05
    1.6529938206e-02    1.0120000000e+05
    1.6539724544e-02    1.0120000000e+05
    1.6549808905e-02    1.0120000000e+05
    1.6559893265e-02    1.0120000000e+05
    1.6569977626e-02    1.0120000000e+05
    1.6579765826e-02    1.0120000000e+05
    1.6589852050e-02    1.0120000000e+05
    1.6599938273e-02    1.0120000000e+05
    1.6609728336e-02    1.0120000000e+05
    1.6619816422e-02    1.0120000000e+05
    1.6629904509e-02    1.0120000000e+05
    1.6639992595e-02    1.0120000000e+05
    1.6649786383e-02    1.0120000000e+05
    1.6659876332e-02    1.0120000000e+05
    1.6669966280e-02    1.0120000000e+05
    1.6679760069e-02    1.0120000000e+05
    1.6689850017e-02    1.0120000000e+05
    1.6699941829e-02    1.0120000000e+05
    1.6709737480e-02    1.0120000000e+05
    1.6719831154e-02    1.0120000000e+05
    1.6729922965e-02    1.0120000000e+05
    1.6739720479e-02    1.0120000000e+05
    1.6749814153e-02    1.0120000000e+05
    1.6759909689e-02    1.0120000000e+05
    1.6769707203e-02    1.0120000000e+05
    1.6779802740e-02    1.0120000000e+05
    1.6789898276e-02    1.0120000000e+05
    1.6799995676e-02    1.0120000000e+05
    1.6809795052e-02    1.0120000000e+05
    1.6819892451e-02    1.0120000000e+05
    1.6829989851e-02    1.0120000000e+05
    1.6839791089e-02    1.0120000000e+05
    1.6849890351e-02    1.0120000000e+05
    1.6859989613e-02    1.0120000000e+05
    1.6869790852e-02    1.0120000000e+05
    1.6879890114e-02    1.0120000000e+05
    1.6889991239e-02    1.0120000000e+05
    1.6899794340e-02    1.0120000000e+05
    1.6909895465e-02    1.0120000000e+05
    1.6919996589e-02    1.0120000000e+05
    1.6929801553e-02    1.0120000000e+05
    1.6939902678e-02    1.0120000000e+05
    1.6949707642e-02    1.0120000000e+05
    1.6959810629e-02    1.0120000000e+05
    1.6969913617e-02    1.0120000000e+05
    1.6979720443e-02    1.0120000000e+05
    1.6989823431e-02    1.0120000000e+05
    1.6999928281e-02    1.0120000000e+05
    1.7009735107e-02    1.0120000000e+05
    1.7019839957e-02    1.0120000000e+05
    1.7029944807e-02    1.0120000000e+05
    1.7039751634e-02    1.0120000000e+05
    1.7049858347e-02    1.0120000000e+05
    1.7059963197e-02    1.0120000000e+05
    1.7069771886e-02    1.0120000000e+05
    1.7079878598e-02    1.0120000000e+05
    1.7089985311e-02    1.0120000000e+05
    1.7099794000e-02    1.0120000000e+05
    1.7109900713e-02    1.0120000000e+05
    1.7119711265e-02    1.0120000000e+05
    1.7129819840e-02    1.0120000000e+05
    1.7139926553e-02    1.0120000000e+05
    1.7149737105e-02    1.0120000000e+05
    1.7159845680e-02    1.0120000000e+05
    1.7169954255e-02    1.0120000000e+05
    1.7179764807e-02    1.0120000000e+05
    1.7189873382e-02    1.0120000000e+05
    1.7199981958e-02    1.0120000000e+05
    1.7209794372e-02    1.0120000000e+05
    1.7219904810e-02    1.0120000000e+05
    1.7229717225e-02    1.0120000000e+05
    1.7239825800e-02    1.0120000000e+05
    1.7249936238e-02    1.0120000000e+05
    1.7259748653e-02    1.0120000000e+05
    1.7269859090e-02    1.0120000000e+05
    1.7279969528e-02    1.0120000000e+05
    1.7289783806e-02    1.0120000000e+05
    1.7299894243e-02    1.0120000000e+05
    1.7309708521e-02    1.0120000000e+05
    1.7319820821e-02    1.0120000000e+05
    1.7329931259e-02    1.0120000000e+05
    1.7339747399e-02    1.0120000000e+05
    1.7349857837e-02    1.0120000000e+05
    1.7359970137e-02    1.0120000000e+05
    1.7369784415e-02    1.0120000000e+05
    1.7379896715e-02    1.0120000000e+05
    1.7389712855e-02    1.0120000000e+05
    1.7399825156e-02    1.0120000000e+05
    1.7409937456e-02    1.0120000000e+05
    1.7419751734e-02    1.0120000000e+05
    1.7429864034e-02    1.0120000000e+05
    1.7439976335e-02    1.0120000000e+05
    1.7449792475e-02    1.0120000000e+05
    1.7459906638e-02    1.0120000000e+05
    1.7469720915e-02    1.0120000000e+05
    1.7479835078e-02    1.0120000000e+05
    1.7489947379e-02    1.0120000000e+05
    1.7499763519e-02    1.0120000000e+05
    1.7509877682e-02    1.0120000000e+05
    1.7519989982e-02    1.0120000000e+05
    1.7529806122e-02    1.0120000000e+05
    1.7539918423e-02    1.0120000000e+05
    1.7549734563e-02    1.0120000000e+05
    1.7559848726e-02    1.0120000000e+05
    1.7569961026e-02    1.0120000000e+05
    1.7579777166e-02    1.0120000000e+05
    1.7589889467e-02    1.0120000000e+05
    1.7599705607e-02    1.0120000000e+05
    1.7609817907e-02    1.0120000000e+05
    1.7619932070e-02    1.0120000000e+05
    1.7629746348e-02    1.0120000000e+05
    1.7639860511e-02    1.0120000000e+05
    1.7649972811e-02    1.0120000000e+05
    1.7659788951e-02    1.0120000000e+05
    1.7669901252e-02    1.0120000000e+05
    1.7679715529e-02    1.0120000000e+05
    1.7689829692e-02    1.0120000000e+05
    1.7699941993e-02    1.0120000000e+05
    1.7709756270e-02    1.0120000000e+05
    1.7719868571e-02    1.0120000000e+05
    1.7729982734e-02    1.0120000000e+05
    1.7739797011e-02    1.0120000000e+05
    1.7749909312e-02    1.0120000000e+05
    1.7759723589e-02    1.0120000000e+05
    1.7769835889e-02    1.0120000000e+05
    1.7779948190e-02    1.0120000000e+05
    1.7789762467e-02    1.0120000000e+05
    1.7799874768e-02    1.0120000000e+05
    1.7809987068e-02    1.0120000000e+05
    1.7819801345e-02    1.0120000000e+05
    1.7829913646e-02    1.0120000000e+05
    1.7839727923e-02    1.0120000000e+05
    1.7849838361e-02    1.0120000000e+05
    1.7859950662e-02    1.0120000000e+05
    1.7869764939e-02    1.0120000000e+05
    1.7879875377e-02    1.0120000000e+05
    1.7889987677e-02    1.0120000000e+05
    1.7899801955e-02    1.0120000000e+05
    1.7909912392e-02    1.0120000000e+05
    1.7919726670e-02    1.0120000000e+05
    1.7929837108e-02    1.0120000000e+05
    1.7939947546e-02    1.0120000000e+05
    1.7949761823e-02    1.0120000000e+05
    1.7959872261e-02    1.0120000000e+05
    1.7969982699e-02    1.0120000000e+05
    1.7979796976e-02    1.0120000000e+05
    1.7989907414e-02    1.0120000000e+05
    1.7999719828e-02    1.0120000000e+05
    1.8009830266e-02    1.0120000000e+05
    1.8019940704e-02    1.0120000000e+05
    1.8029753119e-02    1.0120000000e+05
    1.8039863557e-02    1.0120000000e+05
    1.8049973994e-02    1.0120000000e+05
    1.8059786409e-02    1.0120000000e+05
    1.8069894984e-02    1.0120000000e+05
    1.8079707399e-02    1.0120000000e+05
    1.8089817837e-02    1.0120000000e+05
    1.8099928275e-02    1.0120000000e+05
    1.8109740689e-02    1.0120000000e+05
    1.8119849265e-02    1.0120000000e+05
    1.8129957840e-02    1.0120000000e+05
    1.8139770254e-02    1.0120000000e+05
    1.8149880692e-02    1.0120000000e+05
    1.8159989268e-02    1.0120000000e+05
    1.8169799820e-02    1.0120000000e+05
    1.8179910257e-02    1.0120000000e+05
    1.8189720809e-02    1.0120000000e+05
    1.8199829385e-02    1.0120000000e+05
    1.8209937960e-02    1.0120000000e+05
    1.8219750375e-02    1.0120000000e+05
    1.8229858950e-02    1.0120000000e+05
    1.8239967525e-02    1.0120000000e+05
    1.8249779940e-02    1.0120000000e+05
    1.8259888515e-02    1.0120000000e+05
    1.8269997090e-02    1.0120000000e+05
    1.8279807642e-02    1.0120000000e+05
    1.8289916217e-02    1.0120000000e+05
    1.8299726769e-02    1.0120000000e+05
    1.8309837207e-02    1.0120000000e+05
    1.8319945782e-02    1.0120000000e+05
    1.8329758197e-02    1.0120000000e+05
    1.8339868635e-02    1.0120000000e+05
    1.8349979073e-02    1.0120000000e+05
    1.8359793350e-02    1.0120000000e+05
    1.8369907513e-02    1.0120000000e+05
    1.8379723653e-02    1.0120000000e+05
    1.8389839679e-02    1.0120000000e+05
    1.8399955705e-02    1.0120000000e+05
    1.8409775570e-02    1.0120000000e+05
    1.8419895321e-02    1.0120000000e+05
    1.8429715186e-02    1.0120000000e+05
    1.8439834937e-02    1.0120000000e+05
    1.8449960276e-02    1.0120000000e+05
    1.8459789455e-02    1.0120000000e+05
    1.8469920382e-02    1.0120000000e+05
    1.8479753286e-02    1.0120000000e+05
    1.8489886075e-02    1.0120000000e+05
    1.8499720842e-02    1.0120000000e+05
    1.8509855494e-02    1.0120000000e+05
    1.8519988284e-02    1.0120000000e+05
    1.8529824913e-02    1.0120000000e+05
    1.8539959565e-02    1.0120000000e+05
    1.8549796194e-02    1.0120000000e+05
    1.8559932709e-02    1.0120000000e+05
    1.8569771200e-02    1.0120000000e+05
    1.8579907715e-02    1.0120000000e+05
    1.8589748070e-02    1.0120000000e+05
    1.8599884585e-02    1.0120000000e+05
    1.8609724939e-02    1.0120000000e+05
    1.8619861454e-02    1.0120000000e+05
    1.8629997969e-02    1.0120000000e+05
    1.8639836460e-02    1.0120000000e+05
    1.8649972975e-02    1.0120000000e+05
    1.8659809604e-02    1.0120000000e+05
    1.8669944257e-02    1.0120000000e+05
    1.8679780886e-02    1.0120000000e+05
    1.8689913675e-02    1.0120000000e+05
    1.8699744716e-02    1.0120000000e+05
    1.8709871918e-02    1.0120000000e+05
    1.8719995394e-02    1.0120000000e+05
    1.8729813397e-02    1.0120000000e+05
    1.8739923835e-02    1.0120000000e+05
    1.8749728799e-02    1.0120000000e+05
    1.8759826198e-02    1.0120000000e+05
    1.8769916147e-02    1.0120000000e+05
    1.8779706210e-02    1.0120000000e+05
    1.8789790571e-02    1.0120000000e+05
    1.8799873069e-02    1.0120000000e+05
    1.8809972331e-02    1.0120000000e+05
    1.8819926307e-02    1.0120000000e+05
    1.8829932436e-02    1.0120000000e+05
    1.8839947879e-02    1.0120000000e+05
    1.8849959597e-02    1.0120000000e+05
    1.8859999254e-02    1.0120000000e+05
    1.8869737163e-02    1.0120000000e+05
    1.8879793584e-02    1.0120000000e+05
    1.8889861181e-02    1.0120000000e+05
    1.8899936229e-02    1.0120000000e+05
    1.8909703940e-02    1.0120000000e+05
    1.8919792026e-02    1.0120000000e+05
    1.8929885700e-02    1.0120000000e+05
    1.8939984962e-02    1.0120000000e+05
    1.8949775025e-02    1.0120000000e+05
    1.8959883600e-02    1.0120000000e+05
    1.8969995901e-02    1.0120000000e+05
    1.8979795277e-02    1.0120000000e+05
    1.8989915028e-02    1.0120000000e+05
    1.8999721855e-02    1.0120000000e+05
    1.9009849057e-02    1.0120000000e+05
    1.9019978121e-02    1.0120000000e+05
    1.9029792398e-02    1.0120000000e+05
    1.9039927050e-02    1.0120000000e+05
    1.9049746916e-02    1.0120000000e+05
    1.9059885293e-02    1.0120000000e+05
    1.9069708884e-02    1.0120000000e+05
    1.9079850987e-02    1.0120000000e+05
    1.9089993089e-02    1.0120000000e+05
    1.9099822268e-02    1.0120000000e+05
    1.9109968096e-02    1.0120000000e+05
    1.9119797274e-02    1.0120000000e+05
    1.9129946828e-02    1.0120000000e+05
    1.9139779732e-02    1.0120000000e+05
    1.9149929285e-02    1.0120000000e+05
    1.9159764051e-02    1.0120000000e+05
    1.9169915468e-02    1.0120000000e+05
    1.9179750234e-02    1.0120000000e+05
    1.9189903513e-02    1.0120000000e+05
    1.9199740142e-02    1.0120000000e+05
    1.9209893420e-02    1.0120000000e+05
    1.9219730049e-02    1.0120000000e+05
    1.9229885191e-02    1.0120000000e+05
    1.9239721820e-02    1.0120000000e+05
    1.9249876961e-02    1.0120000000e+05
    1.9259713590e-02    1.0120000000e+05
    1.9269868731e-02    1.0120000000e+05
    1.9279705361e-02    1.0120000000e+05
    1.9289860502e-02    1.0120000000e+05
    1.9299697131e-02    1.0120000000e+05
    1.9309852272e-02    1.0120000000e+05
    1.9319688901e-02    1.0120000000e+05
    1.9329844043e-02    1.0120000000e+05
    1.9339999184e-02    1.0120000000e+05
    1.9349835813e-02    1.0120000000e+05
    1.9359990954e-02    1.0120000000e+05
    1.9369827583e-02    1.0120000000e+05
    1.9379980862e-02    1.0120000000e+05
    1.9389817491e-02    1.0120000000e+05
    1.9399972633e-02    1.0120000000e+05
    1.9409809262e-02    1.0120000000e+05
    1.9419962540e-02    1.0120000000e+05
    1.9429799169e-02    1.0120000000e+05
    1.9439954311e-02    1.0120000000e+05
[...]
    1.1513973773e-01    1.0120752344e+05
    1.1514972895e-01    1.0120752344e+05
    1.1515971273e-01    1.0120752344e+05
    1.1516969651e-01    1.0120752344e+05
    1.1517968774e-01    1.0120752344e+05
    1.1518999934e-01    1.0120752344e+05
    1.1519998312e-01    1.0120750781e+05
    1.1520996690e-01    1.0120750781e+05
    1.1521995813e-01    1.0120750000e+05
    1.1522994190e-01    1.0120750000e+05
    1.1523993313e-01    1.0120750000e+05
    1.1524991691e-01    1.0120750000e+05
    1.1525990814e-01    1.0120749219e+05
    1.1526989192e-01    1.0120749219e+05
    1.1527987570e-01    1.0120749219e+05
    1.1528986692e-01    1.0120749219e+05
    1.1529985070e-01    1.0120747656e+05
    1.1530984193e-01    1.0120747656e+05
    1.1531982571e-01    1.0120747656e+05
    1.1532981694e-01    1.0120747656e+05
    1.1533980072e-01    1.0120747656e+05
    1.1534979194e-01    1.0120747656e+05
    1.1535977572e-01    1.0120747656e+05
    1.1536975950e-01    1.0120746875e+05
    1.1537975073e-01    1.0120746875e+05
    1.1538973451e-01    1.0120746875e+05
    1.1539972574e-01    1.0120746875e+05
    1.1540970951e-01    1.0120746094e+05
    1.1541970074e-01    1.0120746094e+05
    1.1542968452e-01    1.0120746094e+05
    1.1543999612e-01    1.0120746094e+05
    1.1544997990e-01    1.0120746094e+05
    1.1545997113e-01    1.0120746094e+05
    1.1546995491e-01    1.0120746094e+05
    1.1547993869e-01    1.0120744531e+05
    1.1548992991e-01    1.0120744531e+05
    1.1549991369e-01    1.0120744531e+05
    1.1550990492e-01    1.0120744531e+05
    1.1551988870e-01    1.0120743750e+05
    1.1552987993e-01    1.0120743750e+05
    1.1553986371e-01    1.0120743750e+05
    1.1554985493e-01    1.0120742969e+05
    1.1555983871e-01    1.0120742969e+05
    1.1556982249e-01    1.0120742969e+05
    1.1557981372e-01    1.0120742969e+05
    1.1558979750e-01    1.0120742969e+05
    1.1559978873e-01    1.0120741406e+05
    1.1560977250e-01    1.0120741406e+05
    1.1561976373e-01    1.0120741406e+05
    1.1562974751e-01    1.0120741406e+05
    1.1563973129e-01    1.0120741406e+05
    1.1564972252e-01    1.0120741406e+05
    1.1565970629e-01    1.0120740625e+05
    1.1566969752e-01    1.0120740625e+05
    1.1567968130e-01    1.0120740625e+05
    1.1568999290e-01    1.0120740625e+05
    1.1569997668e-01    1.0120740625e+05
    1.1570996791e-01    1.0120740625e+05
    1.1571995169e-01    1.0120739844e+05
    1.1572994292e-01    1.0120739844e+05
    1.1573992670e-01    1.0120739844e+05
    1.1574991792e-01    1.0120739844e+05
    1.1575990170e-01    1.0120739844e+05
    1.1576988548e-01    1.0120738281e+05
    1.1577987671e-01    1.0120738281e+05
    1.1578986049e-01    1.0120738281e+05
    1.1579985172e-01    1.0120737500e+05
    1.1580983549e-01    1.0120737500e+05
    1.1581982672e-01    1.0120737500e+05
    1.1582981050e-01    1.0120737500e+05
    1.1583979428e-01    1.0120737500e+05
    1.1584978551e-01    1.0120736719e+05
    1.1585976928e-01    1.0120736719e+05
    1.1586976051e-01    1.0120736719e+05
    1.1587974429e-01    1.0120735156e+05
    1.1588973552e-01    1.0120735156e+05
    1.1589971930e-01    1.0120735156e+05
    1.1590971053e-01    1.0120735156e+05
    1.1591969430e-01    1.0120735156e+05
    1.1592967808e-01    1.0120735156e+05
    1.1593998969e-01    1.0120735156e+05
    1.1594998091e-01    1.0120735156e+05
    1.1595996469e-01    1.0120734375e+05
    1.1596994847e-01    1.0120734375e+05
    1.1597993970e-01    1.0120734375e+05
    1.1598992348e-01    1.0120734375e+05
    1.1599991471e-01    1.0120733594e+05
    1.1600989848e-01    1.0120733594e+05
    1.1601988971e-01    1.0120733594e+05
    1.1602987349e-01    1.0120733594e+05
    1.1603986472e-01    1.0120733594e+05
    1.1604984850e-01    1.0120733594e+05
    1.1605983227e-01    1.0120733594e+05
    1.1606982350e-01    1.0120732031e+05
    1.1607980728e-01    1.0120732031e+05
    1.1608979851e-01    1.0120732031e+05
    1.1609978229e-01    1.0120732031e+05
    1.1610977352e-01    1.0120731250e+05
    1.1611975729e-01    1.0120731250e+05
    1.1612974107e-01    1.0120731250e+05
    1.1613973230e-01    1.0120731250e+05
    1.1614971608e-01    1.0120730469e+05
    1.1615970731e-01    1.0120730469e+05
    1.1616969109e-01    1.0120730469e+05
    1.1617968231e-01    1.0120730469e+05
    1.1618998647e-01    1.0120728906e+05
    1.1619997770e-01    1.0120728906e+05
    1.1620996147e-01    1.0120728906e+05
    1.1621995270e-01    1.0120728906e+05
    1.1622993648e-01    1.0120728906e+05
    1.1623992771e-01    1.0120728906e+05
    1.1624991149e-01    1.0120728906e+05
    1.1625989527e-01    1.0120728125e+05
    1.1626988649e-01    1.0120728125e+05
    1.1627987027e-01    1.0120728125e+05
    1.1628986150e-01    1.0120728125e+05
    1.1629984528e-01    1.0120727344e+05
    1.1630983651e-01    1.0120727344e+05
    1.1631982028e-01    1.0120727344e+05
    1.1632981151e-01    1.0120727344e+05
    1.1633979529e-01    1.0120727344e+05
    1.1634977907e-01    1.0120727344e+05
    1.1635977030e-01    1.0120727344e+05
    1.1636975408e-01    1.0120727344e+05
    1.1637974530e-01    1.0120725781e+05
    1.1638972908e-01    1.0120725781e+05
    1.1639972031e-01    1.0120725781e+05
    1.1640970409e-01    1.0120725000e+05
    1.1641968787e-01    1.0120725000e+05
    1.1642967910e-01    1.0120725000e+05
    1.1643999070e-01    1.0120725000e+05
    1.1644997448e-01    1.0120724219e+05
    1.1645995826e-01    1.0120724219e+05
    1.1646994948e-01    1.0120724219e+05
    1.1647993326e-01    1.0120724219e+05
    1.1648992449e-01    1.0120722656e+05
    1.1649990827e-01    1.0120722656e+05
    1.1650989950e-01    1.0120722656e+05
    1.1651988328e-01    1.0120722656e+05
    1.1652987450e-01    1.0120722656e+05
    1.1653985828e-01    1.0120722656e+05
    1.1654984206e-01    1.0120722656e+05
    1.1655983329e-01    1.0120721875e+05
    1.1656981707e-01    1.0120721875e+05
    1.1657980829e-01    1.0120721875e+05
    1.1658979207e-01    1.0120721875e+05
    1.1659978330e-01    1.0120721094e+05
    1.1660976708e-01    1.0120721094e+05
    1.1661975831e-01    1.0120721094e+05
    1.1662974209e-01    1.0120721094e+05
    1.1663972586e-01    1.0120721094e+05
    1.1664971709e-01    1.0120721094e+05
    1.1665970087e-01    1.0120721094e+05
    1.1666969210e-01    1.0120721094e+05
    1.1667999625e-01    1.0120719531e+05
    1.1668998748e-01    1.0120719531e+05
    1.1669997126e-01    1.0120719531e+05
    1.1670996249e-01    1.0120719531e+05
    1.1671994627e-01    1.0120718750e+05
    1.1672993749e-01    1.0120718750e+05
    1.1673992127e-01    1.0120718750e+05
    1.1674990505e-01    1.0120718750e+05
    1.1675989628e-01    1.0120717969e+05
    1.1676988006e-01    1.0120717969e+05
    1.1677987128e-01    1.0120717969e+05
    1.1678985506e-01    1.0120717969e+05
    1.1679984629e-01    1.0120716406e+05
    1.1680983007e-01    1.0120716406e+05
    1.1681982130e-01    1.0120716406e+05
    1.1682980508e-01    1.0120716406e+05
    1.1683978885e-01    1.0120716406e+05
    1.1684978008e-01    1.0120716406e+05
    1.1685976386e-01    1.0120716406e+05
    1.1686975509e-01    1.0120715625e+05
    1.1687973887e-01    1.0120715625e+05
    1.1688973010e-01    1.0120715625e+05
    1.1689971387e-01    1.0120715625e+05
    1.1690970510e-01    1.0120714844e+05
    1.1691968888e-01    1.0120714844e+05
    1.1693000048e-01    1.0120714844e+05
    1.1693998426e-01    1.0120714844e+05
    1.1694997549e-01    1.0120714844e+05
    1.1695995927e-01    1.0120714844e+05
    1.1696994305e-01    1.0120714844e+05
    1.1697993428e-01    1.0120714844e+05
    1.1698991805e-01    1.0120713281e+05
    1.1699990928e-01    1.0120713281e+05
    1.1700989306e-01    1.0120713281e+05
    1.1701988429e-01    1.0120713281e+05
    1.1702986807e-01    1.0120712500e+05
    1.1703985929e-01    1.0120712500e+05
    1.1704984307e-01    1.0120712500e+05
    1.1705982685e-01    1.0120711719e+05
    1.1706981808e-01    1.0120711719e+05
    1.1707980186e-01    1.0120711719e+05
    1.1708979309e-01    1.0120711719e+05
    1.1709977686e-01    1.0120710156e+05
    1.1710976809e-01    1.0120710156e+05
    1.1711975187e-01    1.0120710156e+05
    1.1712973565e-01    1.0120710156e+05
    1.1713972688e-01    1.0120710156e+05
    1.1714971066e-01    1.0120710156e+05
    1.1715970188e-01    1.0120710156e+05
    1.1716968566e-01    1.0120710156e+05
    1.1717999727e-01    1.0120709375e+05
    1.1718998104e-01    1.0120709375e+05
    1.1719997227e-01    1.0120709375e+05
    1.1720995605e-01    1.0120709375e+05
    1.1721994728e-01    1.0120708594e+05
    1.1722993106e-01    1.0120708594e+05
    1.1723992229e-01    1.0120708594e+05
    1.1724990606e-01    1.0120708594e+05
    1.1725988984e-01    1.0120708594e+05
    1.1726988107e-01    1.0120708594e+05
    1.1727986485e-01    1.0120708594e+05
    1.1728985608e-01    1.0120708594e+05
    1.1729983985e-01    1.0120707031e+05
    1.1730983108e-01    1.0120707031e+05
    1.1731981486e-01    1.0120707031e+05
    1.1732980609e-01    1.0120707031e+05
    1.1733978987e-01    1.0120706250e+05
    1.1734977365e-01    1.0120706250e+05
    1.1735976487e-01    1.0120706250e+05
    1.1736974865e-01    1.0120706250e+05
    1.1737973988e-01    1.0120705469e+05
    1.1738972366e-01    1.0120705469e+05
    1.1739971489e-01    1.0120705469e+05
    1.1740969867e-01    1.0120705469e+05
    1.1741968989e-01    1.0120703906e+05
    1.1742999405e-01    1.0120703906e+05
    1.1743998528e-01    1.0120703906e+05
    1.1744996905e-01    1.0120703906e+05
    1.1745996028e-01    1.0120703906e+05
    1.1746994406e-01    1.0120703906e+05
    1.1747992784e-01    1.0120703906e+05
    1.1748991907e-01    1.0120703125e+05
    1.1749990284e-01    1.0120703125e+05
    1.1750989407e-01    1.0120703125e+05
    1.1751987785e-01    1.0120703125e+05
    1.1752986908e-01    1.0120702344e+05
    1.1753985286e-01    1.0120702344e+05
    1.1754984409e-01    1.0120702344e+05
    1.1755982786e-01    1.0120702344e+05
    1.1756981164e-01    1.0120702344e+05
    1.1757980287e-01    1.0120702344e+05
    1.1758978665e-01    1.0120702344e+05
    1.1759977788e-01    1.0120702344e+05
    1.1760976166e-01    1.0120702344e+05
    1.1761975288e-01    1.0120700781e+05
    1.1762973666e-01    1.0120700781e+05
    1.1763972789e-01    1.0120700781e+05
    1.1764971167e-01    1.0120700000e+05
    1.1765969545e-01    1.0120700000e+05
    1.1766968668e-01    1.0120700000e+05
    1.1767999828e-01    1.0120700000e+05
    1.1768998206e-01    1.0120700000e+05
    1.1769996583e-01    1.0120699219e+05
    1.1770995706e-01    1.0120699219e+05
    1.1771994084e-01    1.0120699219e+05
    1.1772993207e-01    1.0120697656e+05
    1.1773991585e-01    1.0120697656e+05
    1.1774990708e-01    1.0120697656e+05
    1.1775989085e-01    1.0120697656e+05
    1.1776988208e-01    1.0120697656e+05
    1.1777986586e-01    1.0120697656e+05
    1.1778984964e-01    1.0120697656e+05
    1.1779984087e-01    1.0120697656e+05
    1.1780982465e-01    1.0120696875e+05
    1.1781981587e-01    1.0120696875e+05
    1.1782979965e-01    1.0120696875e+05
    1.1783979088e-01    1.0120696875e+05
    1.1784977466e-01    1.0120696094e+05
    1.1785976589e-01    1.0120696094e+05
    1.1786974967e-01    1.0120696094e+05
    1.1787973344e-01    1.0120696094e+05
    1.1788972467e-01    1.0120696094e+05
    1.1789970845e-01    1.0120696094e+05
    1.1790969968e-01    1.0120696094e+05
    1.1791968346e-01    1.0120696094e+05
    1.1792999506e-01    1.0120696094e+05
    1.1793997884e-01    1.0120694531e+05
    1.1794997007e-01    1.0120694531e+05
    1.1795995384e-01    1.0120694531e+05
    1.1796994507e-01    1.0120694531e+05
    1.1797992885e-01    1.0120693750e+05
    1.1798992008e-01    1.0120693750e+05
    1.1799990386e-01    1.0120693750e+05
    1.1800988764e-01    1.0120693750e+05
    1.1801987886e-01    1.0120692969e+05
    1.1802986264e-01    1.0120692969e+05
    1.1803985387e-01    1.0120692969e+05
    1.1804983765e-01    1.0120691406e+05
    1.1805982888e-01    1.0120691406e+05
    1.1806981266e-01    1.0120691406e+05
    1.1807980388e-01    1.0120691406e+05
    1.1808978766e-01    1.0120691406e+05
    1.1809977144e-01    1.0120691406e+05
    1.1810976267e-01    1.0120691406e+05
    1.1811974645e-01    1.0120691406e+05
    1.1812973768e-01    1.0120690625e+05
    1.1813972145e-01    1.0120690625e+05
    1.1814971268e-01    1.0120690625e+05
    1.1815969646e-01    1.0120690625e+05
    1.1816968769e-01    1.0120689844e+05
    1.1817999184e-01    1.0120689844e+05
    1.1818998307e-01    1.0120689844e+05
    1.1819996685e-01    1.0120689844e+05
    1.1820995808e-01    1.0120689844e+05
    1.1821994185e-01    1.0120689844e+05
    1.1822992563e-01    1.0120689844e+05
    1.1823991686e-01    1.0120689844e+05
    1.1824990064e-01    1.0120688281e+05
    1.1825989187e-01    1.0120688281e+05
    1.1826987565e-01    1.0120688281e+05
    1.1827986687e-01    1.0120688281e+05
    1.1828985065e-01    1.0120688281e+05
    1.1829984188e-01    1.0120687500e+05
    1.1830982566e-01    1.0120687500e+05
    1.1831980944e-01    1.0120687500e+05
    1.1832980067e-01    1.0120687500e+05
    1.1833978444e-01    1.0120686719e+05
    1.1834977567e-01    1.0120686719e+05
    1.1835975945e-01    1.0120686719e+05
    1.1836975068e-01    1.0120685156e+05
    1.1837973446e-01    1.0120685156e+05
    1.1838972569e-01    1.0120685156e+05
    1.1839970946e-01    1.0120685156e+05
    1.1840969324e-01    1.0120685156e+05
    1.1841968447e-01    1.0120685156e+05
    1.1842999607e-01    1.0120685156e+05
    1.1843997985e-01    1.0120685156e+05
    1.1844996363e-01    1.0120685156e+05
    1.1845995486e-01    1.0120684375e+05
    1.1846993864e-01    1.0120684375e+05
    1.1847992986e-01    1.0120684375e+05
    1.1848991364e-01    1.0120684375e+05
    1.1849990487e-01    1.0120683594e+05
    1.1850988865e-01    1.0120683594e+05
    1.1851987988e-01    1.0120683594e+05
    1.1852986366e-01    1.0120683594e+05
    1.1853984743e-01    1.0120683594e+05
    1.1854983866e-01    1.0120683594e+05
    1.1855982244e-01    1.0120683594e+05
    1.1856981367e-01    1.0120683594e+05
    1.1857979745e-01    1.0120683594e+05
    1.1858978868e-01    1.0120683594e+05
    1.1859977245e-01    1.0120682031e+05
    1.1860976368e-01    1.0120682031e+05
    1.1861974746e-01    1.0120682031e+05
    1.1862973124e-01    1.0120682031e+05
    1.1863972247e-01    1.0120681250e+05
    1.1864970624e-01    1.0120681250e+05
    1.1865969747e-01    1.0120681250e+05
    1.1866968125e-01    1.0120680469e+05
    1.1867999285e-01    1.0120680469e+05
    1.1868997663e-01    1.0120680469e+05
    1.1869996786e-01    1.0120678906e+05
    1.1870995164e-01    1.0120678906e+05
    1.1871994287e-01    1.0120678906e+05
    1.1872992665e-01    1.0120678906e+05
    1.1873991787e-01    1.0120678906e+05
    1.1874990165e-01    1.0120678906e+05
    1.1875989288e-01    1.0120678906e+05
    1.1876987666e-01    1.0120678906e+05
    1.1877986044e-01    1.0120678906e+05
    1.1878985167e-01    1.0120678125e+05
    1.1879983544e-01    1.0120678125e+05
    1.1880982667e-01    1.0120678125e+05
    1.1881981045e-01    1.0120678125e+05
    1.1882980168e-01    1.0120678125e+05
    1.1883978546e-01    1.0120677344e+05
    1.1884977669e-01    1.0120677344e+05
    1.1885976046e-01    1.0120677344e+05
    1.1886974424e-01    1.0120677344e+05
    1.1887973547e-01    1.0120677344e+05
    1.1888971925e-01    1.0120677344e+05
    1.1889971048e-01    1.0120677344e+05
    1.1890969425e-01    1.0120677344e+05
    1.1891968548e-01    1.0120675781e+05
    1.1892998964e-01    1.0120675781e+05
    1.1893998086e-01    1.0120675781e+05
    1.1894996464e-01    1.0120675781e+05
    1.1895995587e-01    1.0120675000e+05
    1.1896993965e-01    1.0120675000e+05
    1.1897993088e-01    1.0120675000e+05
    1.1898991466e-01    1.0120675000e+05
    1.1899990588e-01    1.0120674219e+05
    1.1900988966e-01    1.0120674219e+05
    1.1901987344e-01    1.0120674219e+05
    1.1902986467e-01    1.0120674219e+05
    1.1903984845e-01    1.0120674219e+05
    1.1904983968e-01    1.0120672656e+05
    1.1905982345e-01    1.0120672656e+05
    1.1906981468e-01    1.0120672656e+05
    1.1907979846e-01    1.0120672656e+05
    1.1908978969e-01    1.0120672656e+05
    1.1909977347e-01    1.0120672656e+05
    1.1910975724e-01    1.0120671875e+05
    1.1911974847e-01    1.0120671875e+05
    1.1912973225e-01    1.0120671875e+05
    1.1913972348e-01    1.0120671875e+05
    1.1914970726e-01    1.0120671875e+05
    1.1915969849e-01    1.0120671875e+05
    1.1916968226e-01    1.0120671094e+05
    1.1917999387e-01    1.0120671094e+05
    1.1918997765e-01    1.0120671094e+05
    1.1919996887e-01    1.0120671094e+05
    1.1920995265e-01    1.0120671094e+05
    1.1921994388e-01    1.0120671094e+05
    1.1922992766e-01    1.0120671094e+05
    1.1923991889e-01    1.0120671094e+05
    1.1924990267e-01    1.0120669531e+05
    1.1925989389e-01    1.0120669531e+05
    1.1926987767e-01    1.0120669531e+05
    1.1927986145e-01    1.0120669531e+05
    1.1928985268e-01    1.0120668750e+05
    1.1929983646e-01    1.0120668750e+05
    1.1930982769e-01    1.0120668750e+05
    1.1931981146e-01    1.0120668750e+05
    1.1932980269e-01    1.0120668750e+05
    1.1933978647e-01    1.0120667969e+05
    1.1934977770e-01    1.0120667969e+05
    1.1935976148e-01    1.0120667969e+05
    1.1936974525e-01    1.0120666406e+05
    1.1937973648e-01    1.0120666406e+05
    1.1938972026e-01    1.0120666406e+05
    1.1939971149e-01    1.0120666406e+05
    1.1940969527e-01    1.0120666406e+05
    1.1941968650e-01    1.0120666406e+05
    1.1942999065e-01    1.0120666406e+05
    1.1943998188e-01    1.0120666406e+05
    1.1944996566e-01    1.0120666406e+05
    1.1945995688e-01    1.0120666406e+05
    1.1946994066e-01    1.0120665625e+05
    1.1947993189e-01    1.0120665625e+05
    1.1948991567e-01    1.0120665625e+05
    1.1949990690e-01    1.0120664844e+05
    1.1950989068e-01    1.0120664844e+05
    1.1951988190e-01    1.0120664844e+05
    1.1952986568e-01    1.0120664844e+05
    1.1953984946e-01    1.0120664844e+05
    1.1954984069e-01    1.0120664844e+05
    1.1955982447e-01    1.0120664844e+05
    1.1956981570e-01    1.0120664844e+05
    1.1957979947e-01    1.0120664844e+05
    1.1958979070e-01    1.0120663281e+05
    1.1959977448e-01    1.0120663281e+05
    1.1960976571e-01    1.0120663281e+05
    1.1961974949e-01    1.0120663281e+05
    1.1962974072e-01    1.0120662500e+05
    1.1963972449e-01    1.0120662500e+05
    1.1964970827e-01    1.0120662500e+05
    1.1965969950e-01    1.0120662500e+05
    1.1966968328e-01    1.0120661719e+05
    1.1967999488e-01    1.0120661719e+05
    1.1968998611e-01    1.0120661719e+05
    1.1969996989e-01    1.0120661719e+05
    1.1970995367e-01    1.0120660156e+05
    1.1971994489e-01    1.0120660156e+05
    1.1972992867e-01    1.0120660156e+05
    1.1973991990e-01    1.0120660156e+05
    1.1974990368e-01    1.0120660156e+05
    1.1975989491e-01    1.0120660156e+05
    1.1976987869e-01    1.0120660156e+05
    1.1977986991e-01    1.0120660156e+05
    1.1978985369e-01    1.0120660156e+05
    1.1979984492e-01    1.0120659375e+05
    1.1980982870e-01    1.0120659375e+05
    1.1981981248e-01    1.0120659375e+05
    1.1982980371e-01    1.0120659375e+05
    1.1983978748e-01    1.0120659375e+05
    1.1984977871e-01    1.0120658594e+05
    1.1985976249e-01    1.0120658594e+05
    1.1986975372e-01    1.0120658594e+05
    1.1987973750e-01    1.0120658594e+05
    1.1988972872e-01    1.0120658594e+05
    1.1989971250e-01    1.0120658594e+05
    1.1990970373e-01    1.0120658594e+05
    1.1991968751e-01    1.0120658594e+05
    1.1992999911e-01    1.0120657031e+05
    1.1993998289e-01    1.0120657031e+05
    1.1994997412e-01    1.0120657031e+05
    1.1995995790e-01    1.0120657031e+05
    1.1996994913e-01    1.0120656250e+05
    1.1997993290e-01    1.0120656250e+05
    1.1998991668e-01    1.0120656250e+05
    1.1999990791e-01    1.0120656250e+05
endcurve
