Curveplot
LS-DYNA keyword deck by LS-PrePost                          
Time
Pressure
Defined Connection
Pressure @ 37 #pts=12001
* Minval=     9.4433476562e+04 at time=         0.0573698655
* Maxval=     1.2053294531e+05 at time=         0.0392899066
    0.0000000000e+00    1.0120000000e+05
    9.9485314422e-06    1.0120000000e+05
    1.9897417587e-05    1.0120000000e+05
    2.9994766010e-05    1.0120000000e+05
    3.9957827539e-05    1.0120000000e+05
    4.9994516303e-05    1.0120000000e+05
    5.9951671574e-05    1.0120000000e+05
    6.9945184805e-05    1.0120000000e+05
    7.9986151832e-05    1.0120000000e+05
    8.9962442871e-05    1.0120000000e+05
    9.9946344562e-05    1.0120000000e+05
    1.0993209435e-04    1.0120000000e+05
    1.1997552065e-04    1.0120000000e+05
    1.2999853061e-04    1.0120000000e+05
    1.3999077783e-04    1.0120000000e+05
    1.4994296362e-04    1.0120000000e+05
    1.5999775496e-04    1.0120000000e+05
    1.6999695799e-04    1.0120000000e+05
    1.7993064830e-04    1.0120000000e+05
    1.8994866696e-04    1.0120000000e+05
    1.9996627816e-04    1.0120000000e+05
    2.0997656975e-04    1.0120000000e+05
    2.1997289150e-04    1.0120000000e+05
    2.2994799656e-04    1.0120000000e+05
    2.3998104734e-04    1.0120000000e+05
    2.4998156005e-04    1.0120000000e+05
    2.5994196767e-04    1.0120000000e+05
    2.6994498330e-04    1.0120000000e+05
    2.7998659061e-04    1.0120000000e+05
    2.8997100890e-04    1.0120000000e+05
    2.9998351238e-04    1.0120000000e+05
    3.0992488610e-04    1.0120000000e+05
    3.1997289625e-04    1.0120000000e+05
    3.2992582419e-04    1.0120000000e+05
    3.3997310675e-04    1.0120000000e+05
    3.4991887514e-04    1.0120000000e+05
    3.5995329381e-04    1.0120000000e+05
    3.6998369615e-04    1.0120000000e+05
    3.7990443525e-04    1.0120000000e+05
    3.8991431938e-04    1.0120000000e+05
    3.9991023368e-04    1.0120000000e+05
    4.0999701014e-04    1.0120000000e+05
    4.1996556683e-04    1.0120000000e+05
    4.2991683586e-04    1.0120000000e+05
    4.3995401938e-04    1.0120000000e+05
    4.4997298392e-04    1.0120000000e+05
    4.5997209963e-04    1.0120000000e+05
    4.6994915465e-04    1.0120000000e+05
    4.7990251915e-04    1.0120000000e+05
    4.8993941164e-04    1.0120000000e+05
    4.9995305017e-04    1.0120000000e+05
    5.0993985496e-04    1.0120000000e+05
    5.1989790518e-04    1.0120000000e+05
    5.2993948339e-04    1.0120000000e+05
    5.3994782502e-04    1.0120000000e+05
    5.4992752848e-04    1.0120000000e+05
    5.5999070173e-04    1.0120000000e+05
    5.6990142912e-04    1.0120000000e+05
    5.7989405468e-04    1.0120000000e+05
    5.8996735606e-04    1.0120000000e+05
    5.9988407884e-04    1.0120000000e+05
    6.0988211771e-04    1.0120000000e+05
    6.1996252043e-04    1.0120000000e+05
    6.2987761339e-04    1.0120000000e+05
    6.3999881968e-04    1.0120000000e+05
    6.4994837157e-04    1.0120000000e+05
    6.5998121863e-04    1.0120000000e+05
    6.6996755777e-04    1.0120000000e+05
    6.7990523530e-04    1.0120000000e+05
    6.8992294837e-04    1.0120000000e+05
    6.9989019539e-04    1.0120000000e+05
    7.0993485861e-04    1.0120000000e+05
    7.1992969606e-04    1.0120000000e+05
    7.2986993473e-04    1.0120000000e+05
    7.3988939403e-04    1.0120000000e+05
    7.4998912169e-04    1.0120000000e+05
    7.5989402831e-04    1.0120000000e+05
    7.6987704961e-04    1.0120000000e+05
    7.7993609011e-04    1.0120000000e+05
    7.8993686475e-04    1.0120000000e+05
    7.9987425124e-04    1.0120000000e+05
    8.0988946138e-04    1.0120000000e+05
    8.1998348469e-04    1.0120000000e+05
    8.2986557391e-04    1.0120000000e+05
    8.3997106412e-04    1.0120000000e+05
    8.4985990543e-04    1.0120000000e+05
    8.5997045971e-04    1.0120000000e+05
    8.6986296810e-04    1.0120000000e+05
    8.7998283561e-04    1.0120000000e+05
    8.8987615891e-04    1.0120000000e+05
    8.9999870397e-04    1.0120000000e+05
    9.0988952434e-04    1.0120000000e+05
    9.1985514155e-04    1.0120000000e+05
    9.2989654513e-04    1.0120000000e+05
    9.3985587591e-04    1.0120000000e+05
    9.4989041099e-04    1.0120000000e+05
    9.5999689074e-04    1.0120000000e+05
    9.6985936398e-04    1.0120000000e+05
    9.7995880060e-04    1.0120000000e+05
    9.8997005261e-04    1.0120000000e+05
    9.9988991860e-04    1.0120000000e+05
    1.0098831262e-03    1.0120000000e+05
    1.0199502576e-03    1.0120000000e+05
    1.0299225105e-03    1.0120000000e+05
    1.0399678722e-03    1.0120000000e+05
    1.0499152122e-03    1.0120000000e+05
    1.0599347297e-03    1.0120000000e+05
    1.0698527331e-03    1.0120000000e+05
    1.0798370931e-03    1.0120000000e+05
    1.0898918845e-03    1.0120000000e+05
    1.0998474900e-03    1.0120000000e+05
    1.1098749237e-03    1.0120000000e+05
    1.1199745350e-03    1.0120000000e+05
    1.1299647158e-03    1.0120000000e+05
    1.1398422066e-03    1.0120000000e+05
    1.1499739485e-03    1.0120000000e+05
    1.1599921854e-03    1.0120000000e+05
    1.1698936578e-03    1.0120000000e+05
    1.1798640480e-03    1.0120000000e+05
    1.1899041710e-03    1.0120000000e+05
    1.1998233385e-03    1.0120000000e+05
    1.2098111911e-03    1.0120000000e+05
    1.2198685436e-03    1.0120000000e+05
    1.2299962109e-03    1.0120000000e+05
    1.2399980333e-03    1.0120000000e+05
    1.2498709839e-03    1.0120000000e+05
    1.2598111061e-03    1.0120000000e+05
    1.2698195642e-03    1.0120000000e+05
    1.2798894895e-03    1.0120000000e+05
    1.2898276327e-03    1.0120000000e+05
    1.2998385355e-03    1.0120000000e+05
    1.3099181233e-03    1.0120000000e+05
    1.3198594097e-03    1.0120000000e+05
    1.3298681006e-03    1.0120000000e+05
    1.3399447780e-03    1.0120000000e+05
    1.3498787303e-03    1.0120000000e+05
    1.3598793885e-03    1.0120000000e+05
    1.3699483825e-03    1.0120000000e+05
    1.3798691798e-03    1.0120000000e+05
    1.3898567995e-03    1.0120000000e+05
    1.3999118237e-03    1.0120000000e+05
    1.4098144602e-03    1.0120000000e+05
    1.4197832206e-03    1.0120000000e+05
    1.4298189199e-03    1.0120000000e+05
    1.4399227221e-03    1.0120000000e+05
    1.4498685487e-03    1.0120000000e+05
    1.4598802663e-03    1.0120000000e+05
    1.4699602034e-03    1.0120000000e+05
    1.4798761113e-03    1.0120000000e+05
    1.4898593072e-03    1.0120000000e+05
    1.4999085106e-03    1.0120000000e+05
    1.5097887954e-03    1.0120000000e+05
    1.5199726913e-03    1.0120000000e+05
    1.5299872030e-03    1.0120000000e+05
    1.5398280229e-03    1.0120000000e+05
    1.5499759465e-03    1.0120000000e+05
    1.5599485487e-03    1.0120000000e+05
    1.5699886717e-03    1.0120000000e+05
    1.5798497479e-03    1.0120000000e+05
    1.5897746198e-03    1.0120000000e+05
    1.5997667797e-03    1.0120000000e+05
    1.6098247143e-03    1.0120000000e+05
    1.6199515667e-03    1.0120000000e+05
    1.6298912233e-03    1.0120000000e+05
    1.6398968874e-03    1.0120000000e+05
    1.6499698395e-03    1.0120000000e+05
    1.6598500079e-03    1.0120000000e+05
    1.6697959509e-03    1.0120000000e+05
    1.6798083670e-03    1.0120000000e+05
    1.6898881877e-03    1.0120000000e+05
    1.6997681232e-03    1.0120000000e+05
    1.7099836841e-03    1.0120000000e+05
    1.7199981958e-03    1.0120000000e+05
    1.7298064195e-03    1.0120000000e+05
    1.7399552744e-03    1.0120000000e+05
    1.7498963280e-03    1.0120000000e+05
    1.7599040875e-03    1.0120000000e+05
    1.7699798336e-03    1.0120000000e+05
    1.7798416084e-03    1.0120000000e+05
    1.7897655489e-03    1.0120000000e+05
    1.7997506075e-03    1.0120000000e+05
    1.8098127330e-03    1.0120000000e+05
    1.8199437764e-03    1.0120000000e+05
    1.8298522336e-03    1.0120000000e+05
    1.8398276297e-03    1.0120000000e+05
    1.8498712452e-03    1.0120000000e+05
    1.8599835457e-03    1.0120000000e+05
    1.8698654603e-03    1.0120000000e+05
    1.8798141973e-03    1.0120000000e+05
    1.8898311537e-03    1.0120000000e+05
    1.8999167951e-03    1.0120000000e+05
    1.9097639015e-03    1.0120000000e+05
    1.9199887756e-03    1.0120000000e+05
    1.9299729029e-03    1.0120000000e+05
    1.9397108117e-03    1.0120000000e+05
    1.9498317270e-03    1.0120000000e+05
    1.9597043283e-03    1.0120000000e+05
    1.9699663389e-03    1.0120000000e+05
    1.9799780566e-03    1.0120000000e+05
    1.9897334278e-03    1.0120000000e+05
    1.9998841453e-03    1.0120000000e+05
    2.0097759552e-03    1.0120000000e+05
    2.0197296981e-03    1.0120000000e+05
    2.0297537558e-03    1.0120000000e+05
    2.0398551133e-03    1.0120000000e+05
    2.0496889483e-03    1.0120000000e+05
    2.0599341951e-03    1.0120000000e+05
    2.0699086599e-03    1.0120000000e+05
    2.0799546037e-03    1.0120000000e+05
    2.0897223148e-03    1.0120000000e+05
    2.0999112166e-03    1.0120000000e+05
    2.1098195575e-03    1.0120000000e+05
    2.1197984461e-03    1.0120000000e+05
    2.1298497450e-03    1.0120000000e+05
    2.1399741527e-03    1.0120000000e+05
    2.1498075221e-03    1.0120000000e+05
    2.1597114392e-03    1.0120000000e+05
    2.1696870681e-03    1.0120000000e+05
    2.1797304507e-03    1.0120000000e+05
    2.1898532286e-03    1.0120000000e+05
    2.1996728610e-03    1.0120000000e+05
    2.2099458147e-03    1.0120000000e+05
    2.2199121304e-03    1.0120000000e+05
    2.2299529519e-03    1.0120000000e+05
    2.2396785207e-03    1.0120000000e+05
    2.2498683538e-03    1.0120000000e+05
    2.2597401403e-03    1.0120000000e+05
    2.2696855012e-03    1.0120000000e+05
    2.2797060665e-03    1.0120000000e+05
    2.2898030002e-03    1.0120000000e+05
    2.2999781650e-03    1.0120000000e+05
    2.3098208476e-03    1.0120000000e+05
    2.3197333794e-03    1.0120000000e+05
    2.3297269363e-03    1.0120000000e+05
    2.3397977930e-03    1.0120000000e+05
    2.3499478120e-03    1.0120000000e+05
    2.3597506806e-03    1.0120000000e+05
    2.3696287535e-03    1.0120000000e+05
    2.3795687594e-03    1.0120000000e+05
    2.3895711638e-03    1.0120000000e+05
    2.3996182717e-03    1.0120000000e+05
    2.4096977431e-03    1.0120000000e+05
    2.4198067840e-03    1.0120000000e+05
    2.4299470242e-03    1.0120000000e+05
    2.4396695662e-03    1.0120000000e+05
    2.4498680141e-03    1.0120000000e+05
    2.4596157018e-03    1.0120000000e+05
    2.4698001798e-03    1.0120000000e+05
    2.4795904756e-03    1.0120000000e+05
    2.4897777475e-03    1.0120000000e+05
    2.4999985471e-03    1.0120000000e+05
    2.5097636972e-03    1.0120000000e+05
    2.5199579541e-03    1.0120000000e+05
    2.5297300890e-03    1.0120000000e+05
    2.5399301667e-03    1.0120000000e+05
    2.5496927556e-03    1.0120000000e+05
    2.5598732755e-03    1.0120000000e+05
    2.5696258526e-03    1.0120000000e+05
    2.5797961280e-03    1.0120000000e+05
    2.5899603497e-03    1.0120000000e+05
    2.5996963959e-03    1.0120000000e+05
    2.6099083479e-03    1.0120000000e+05
    2.6196264662e-03    1.0120000000e+05
    2.6298316661e-03    1.0120000000e+05
    2.6399951894e-03    1.0120000000e+05
    2.6496560313e-03    1.0120000000e+05
    2.6597855613e-03    1.0120000000e+05
    2.6699779555e-03    1.0120000000e+05
    2.6797205210e-03    1.0120000000e+05
    2.6899196673e-03    1.0120000000e+05
    2.6997060049e-03    1.0120000000e+05
    2.7099535801e-03    1.0120000000e+05
    2.7197510935e-03    1.0120000000e+05
    2.7295860928e-03    1.0120000000e+05
    2.7398900129e-03    1.0120000000e+05
    2.7497473639e-03    1.0120000000e+05
    2.7596368454e-03    1.0120000000e+05
    2.7699577622e-03    1.0120000000e+05
    2.7798586525e-03    1.0120000000e+05
    2.7897772379e-03    1.0120000000e+05
    2.7996988501e-03    1.0120000000e+05
    2.8096192982e-03    1.0120000000e+05
    2.8195402119e-03    1.0120000000e+05
    2.8299195692e-03    1.0120000000e+05
    2.8398125432e-03    1.0120000000e+05
    2.8497043531e-03    1.0120000000e+05
    2.8595793992e-03    1.0120000000e+05
    2.8698726092e-03    1.0120000000e+05
    2.8796959668e-03    1.0120000000e+05
    2.8899260797e-03    1.0120000000e+05
    2.8996779583e-03    1.0120000000e+05
    2.9098265804e-03    1.0120000000e+05
    2.9199151322e-03    1.0120000000e+05
    2.9299380258e-03    1.0120000000e+05
    2.9398966581e-03    1.0120000000e+05
    2.9497896321e-03    1.0120000000e+05
    2.9596218374e-03    1.0120000000e+05
    2.9698158614e-03    1.0120000000e+05
    2.9799430631e-03    1.0120000000e+05
    2.9895869084e-03    1.0120000000e+05
    2.9995865189e-03    1.0120000000e+05
    3.0099344440e-03    1.0120000000e+05
    3.0198039021e-03    1.0120000000e+05
    3.0296088662e-03    1.0120000000e+05
    3.0397584196e-03    1.0120000000e+05
    3.0498420820e-03    1.0120000000e+05
    3.0598603189e-03    1.0120000000e+05
    3.0698135961e-03    1.0120000000e+05
    3.0797026120e-03    1.0120000000e+05
    3.0899178237e-03    1.0120000000e+05
    3.0996762216e-03    1.0120000000e+05
    3.1097615138e-03    1.0120000000e+05
    3.1197802164e-03    1.0120000000e+05
    3.1297334936e-03    1.0120000000e+05
    3.1396213453e-03    1.0120000000e+05
    3.1498214230e-03    1.0120000000e+05
    3.1599504873e-03    1.0120000000e+05
    3.1696411315e-03    1.0120000000e+05
    3.1796388794e-03    1.0120000000e+05
    3.1899365131e-03    1.0120000000e+05
    3.1997987535e-03    1.0120000000e+05
    3.2099569216e-03    1.0120000000e+05
    3.2196859829e-03    1.0120000000e+05
    3.2297070138e-03    1.0120000000e+05
    3.2396591268e-03    1.0120000000e+05
    3.2498941291e-03    1.0120000000e+05
    3.2597070094e-03    1.0120000000e+05
    3.2697997522e-03    1.0120000000e+05
    3.2798203174e-03    1.0120000000e+05
    3.2897701021e-03    1.0120000000e+05
    3.2999883406e-03    1.0120000000e+05
    3.3097944688e-03    1.0120000000e+05
    3.3198648598e-03    1.0120000000e+05
    3.3298607450e-03    1.0120000000e+05
    3.3397832885e-03    1.0120000000e+05
    3.3499591518e-03    1.0120000000e+05
    3.3597326837e-03    1.0120000000e+05
    3.3697555773e-03    1.0120000000e+05
    3.3797011711e-03    1.0120000000e+05
    3.3898868132e-03    1.0120000000e+05
    3.3999904990e-03    1.0120000000e+05
    3.4097013995e-03    1.0120000000e+05
    3.4199552611e-03    1.0120000000e+05
    3.4298165701e-03    1.0120000000e+05
    3.4399018623e-03    1.0120000000e+05
    3.4499019384e-03    1.0120000000e+05
    3.4598165657e-03    1.0120000000e+05
    3.4699430689e-03    1.0120000000e+05
    3.4799796995e-03    1.0120000000e+05
    3.4899264574e-03    1.0120000000e+05
    3.4997838084e-03    1.0120000000e+05
    3.5098372027e-03    1.0120000000e+05
    3.5197956022e-03    1.0120000000e+05
    3.5299395677e-03    1.0120000000e+05
    3.5399827175e-03    1.0120000000e+05
    3.5499255173e-03    1.0120000000e+05
    3.5597675014e-03    1.0120000000e+05
    3.5697775893e-03    1.0120000000e+05
    3.5799467005e-03    1.0120000000e+05
    3.5897393245e-03    1.0120000000e+05
    3.5999445245e-03    1.0120000000e+05
    3.6097725388e-03    1.0120000000e+05
    3.6199940369e-03    1.0120000000e+05
    3.6298367195e-03    1.0120000000e+05
    3.6398044322e-03    1.0120000000e+05
    3.6498866975e-03    1.0120000000e+05
    3.6598311272e-03    1.0120000000e+05
    3.6698745098e-03    1.0120000000e+05
    3.6797702778e-03    1.0120000000e+05
    3.6899775732e-03    1.0120000000e+05
    3.6997925490e-03    1.0120000000e+05
    3.7098920438e-03    1.0120000000e+05
    3.7198124919e-03    1.0120000000e+05
    3.7299792748e-03    1.0120000000e+05
    3.7399434950e-03    1.0120000000e+05
    3.7499053869e-03    1.0120000000e+05
    3.7598458584e-03    1.0120000000e+05
    3.7699395325e-03    1.0120000000e+05
    3.7799568381e-03    1.0120000000e+05
    3.7898712326e-03    1.0120000000e+05
    3.7998305634e-03    1.0120000000e+05
    3.8099514786e-03    1.0120000000e+05
    3.8199846167e-03    1.0120000000e+05
    3.8298512809e-03    1.0120000000e+05
    3.8398897741e-03    1.0120000000e+05
    3.8498681970e-03    1.0120000000e+05
    3.8599192630e-03    1.0120000000e+05
    3.8699144498e-03    1.0120000000e+05
    3.8799357135e-03    1.0120000000e+05
    3.8899441715e-03    1.0120000000e+05
    3.8999665994e-03    1.0120000000e+05
    3.9099738933e-03    1.0120000000e+05
    3.9199586026e-03    1.0120000000e+05
    3.9298650809e-03    1.0120000000e+05
    3.9399806410e-03    1.0120000000e+05
    3.9499984123e-03    1.0120000000e+05
    3.9599519223e-03    1.0120000000e+05
    3.9698360488e-03    1.0120000000e+05
    3.9798840880e-03    1.0120000000e+05
    3.9899004623e-03    1.0120000000e+05
    3.9998600259e-03    1.0120000000e+05
    4.0099089965e-03    1.0120000000e+05
    4.0198974311e-03    1.0120000000e+05
    4.0299831890e-03    1.0120000000e+05
    4.0399758145e-03    1.0120000000e+05
    4.0498571470e-03    1.0120000000e+05
    4.0598446503e-03    1.0120000000e+05
    4.0698898956e-03    1.0120000000e+05
    4.0798168629e-03    1.0120000000e+05
    4.0898043662e-03    1.0120000000e+05
    4.0998780169e-03    1.0120000000e+05
    4.1098077781e-03    1.0120000000e+05
    4.1199959815e-03    1.0120000000e+05
    4.1298437864e-03    1.0120000000e+05
    4.1399346665e-03    1.0120000000e+05
    4.1498946957e-03    1.0120000000e+05
    4.1598971002e-03    1.0120000000e+05
    4.1699660942e-03    1.0120000000e+05
    4.1798548773e-03    1.0120000000e+05
    4.1898167692e-03    1.0120000000e+05
    4.1997958906e-03    1.0120000000e+05
    4.2098439299e-03    1.0120000000e+05
    4.2199138552e-03    1.0120000000e+05
    4.2298352346e-03    1.0120000000e+05
    4.2399982922e-03    1.0120000000e+05
    4.2499867268e-03    1.0120000000e+05
    4.2598224245e-03    1.0120000000e+05
    4.2698727921e-03    1.0120000000e+05
    4.2797955684e-03    1.0120000000e+05
    4.2899181135e-03    1.0120000000e+05
    4.2999153957e-03    1.0120000000e+05
    4.3099178001e-03    1.0120000000e+05
    4.3199546635e-03    1.0120000000e+05
    4.3298276141e-03    1.0120000000e+05
    4.3399059214e-03    1.0120000000e+05
    4.3498710729e-03    1.0120000000e+05
    4.3597933836e-03    1.0120000000e+05
    4.3698130175e-03    1.0120000000e+05
    4.3798289262e-03    1.0120000000e+05
    4.3898588046e-03    1.0120000000e+05
    4.3999822810e-03    1.0120000000e+05
    4.4098352082e-03    1.0120000000e+05
    4.4197863899e-03    1.0120000000e+05
    4.4299461879e-03    1.0120000000e+05
    4.4399239123e-03    1.0120000000e+05
    4.4499449432e-03    1.0120000000e+05
    4.4599804096e-03    1.0120000000e+05
    4.4698528945e-03    1.0120000000e+05
    4.4799391180e-03    1.0120000000e+05
    4.4898591004e-03    1.0120000000e+05
    4.4998116791e-03    1.0120000000e+05
    4.5099891722e-03    1.0120000000e+05
    4.5199985616e-03    1.0120000000e+05
    4.5297974721e-03    1.0120000000e+05
    4.5398445800e-03    1.0120000000e+05
    4.5499186963e-03    1.0120000000e+05
    4.5597958378e-03    1.0120000000e+05
    4.5699235052e-03    1.0120000000e+05
    4.5798416249e-03    1.0120000000e+05
    4.5897820964e-03    1.0120000000e+05
    4.5999810100e-03    1.0120000000e+05
    4.6099643223e-03    1.0120000000e+05
    4.6199746430e-03    1.0120000000e+05
    4.6299980022e-03    1.0120000000e+05
    4.6398066916e-03    1.0120000000e+05
    4.6498761512e-03    1.0120000000e+05
    4.6599642374e-03    1.0120000000e+05
    4.6698255464e-03    1.0120000000e+05
    4.6799383126e-03    1.0120000000e+05
    4.6898419969e-03    1.0120000000e+05
    4.6999896877e-03    1.0120000000e+05
    4.7099143267e-03    1.0120000000e+05
    4.7198561952e-03    1.0120000000e+05
    4.7298092395e-03    1.0120000000e+05
    4.7397702001e-03    1.0120000000e+05
    4.7499854118e-03    1.0120000000e+05
    4.7599752434e-03    1.0120000000e+05
    4.7699674033e-03    1.0120000000e+05
    4.7799698077e-03    1.0120000000e+05
    4.7899824567e-03    1.0120000000e+05
    4.7997627407e-03    1.0120000000e+05
    4.8097842373e-03    1.0120000000e+05
    4.8198099248e-03    1.0120000000e+05
    4.8298379406e-03    1.0120000000e+05
    4.8398659565e-03    1.0120000000e+05
    4.8498944379e-03    1.0120000000e+05
    4.8599233851e-03    1.0120000000e+05
    4.8699523322e-03    1.0120000000e+05
    4.8799817450e-03    1.0120000000e+05
    4.8897722736e-03    1.0120000000e+05
    4.8998012207e-03    1.0120000000e+05
    4.9098306336e-03    1.0120000000e+05
    4.9198595807e-03    1.0120000000e+05
    4.9298880622e-03    1.0120000000e+05
    4.9399160780e-03    1.0120000000e+05
    4.9499440938e-03    1.0120000000e+05
    4.9599716440e-03    1.0120000000e+05
    4.9699982628e-03    1.0120000000e+05
    4.9797859974e-03    1.0120000000e+05
    4.9898116849e-03    1.0120000000e+05
    4.9998369068e-03    1.0120000000e+05
    5.0098616630e-03    1.0120000000e+05
    5.0198850222e-03    1.0120000000e+05
    5.0299079157e-03    1.0120000000e+05
    5.0399294123e-03    1.0120000000e+05
    5.0499490462e-03    1.0120000000e+05
    5.0599686801e-03    1.0120000000e+05
    5.0699878484e-03    1.0120000000e+05
    5.0797672011e-03    1.0120000000e+05
    5.0897854380e-03    1.0120000000e+05
    5.0998078659e-03    1.0120000000e+05
    5.1098363474e-03    1.0120000000e+05
    5.1198638976e-03    1.0120000000e+05
    5.1299030893e-03    1.0120000000e+05
    5.1399525255e-03    1.0120000000e+05
    5.1497644745e-03    1.0120000000e+05
    5.1598190330e-03    1.0120000000e+05
    5.1698908210e-03    1.0120000000e+05
    5.1799667999e-03    1.0120000000e+05
    5.1898057573e-03    1.0120000000e+05
    5.1998980343e-03    1.0120000000e+05
    5.2097621374e-03    1.0120000000e+05
    5.2198651247e-03    1.0120000000e+05
    5.2299755625e-03    1.0120000000e+05
    5.2398638800e-03    1.0120000000e+05
    5.2499887533e-03    1.0120000000e+05
    5.2598807961e-03    1.0120000000e+05
    5.2697858773e-03    1.0120000000e+05
    5.2799480036e-03    1.0120000000e+05
    5.2898502909e-03    1.0120000000e+05
    5.2997744642e-03    1.0120000000e+05
    5.3099552169e-03    1.0120000000e+05
    5.3198924288e-03    1.0120000000e+05
    5.3298193961e-03    1.0120000000e+05
    5.3397822194e-03    1.0120000000e+05
    5.3499918431e-03    1.0120000000e+05
    5.3599472158e-03    1.0120000000e+05
    5.3699039854e-03    1.0120000000e+05
    5.3798919544e-03    1.0120000000e+05
    5.3898780607e-03    1.0120000000e+05
    5.3998581134e-03    1.0120000000e+05
    5.4098507389e-03    1.0120000000e+05
    5.4198503494e-03    1.0120000000e+05
    5.4298639297e-03    1.0120000000e+05
    5.4398803040e-03    1.0120000000e+05
    5.4499041289e-03    1.0120000000e+05
    5.4599214345e-03    1.0120000000e+05
    5.4699624889e-03    1.0120000000e+05
    5.4797683842e-03    1.0120000000e+05
    5.4898136295e-03    1.0120000000e+05
    5.4998546839e-03    1.0120000000e+05
    5.5099222809e-03    1.0120000000e+05
    5.5197565816e-03    1.0120000000e+05
    5.5298293009e-03    1.0120000000e+05
    5.5398922414e-03    1.0120000000e+05
    5.5499807931e-03    1.0120000000e+05
    5.5598355830e-03    1.0120000000e+05
    5.5699353106e-03    1.0120000000e+05
    5.5797784589e-03    1.0120000000e+05
    5.5898847058e-03    1.0120000000e+05
    5.5997613817e-03    1.0120000000e+05
    5.6098881178e-03    1.0120000000e+05
    5.6197638623e-03    1.0120000000e+05
    5.6298915297e-03    1.0120000000e+05
    5.6397905573e-03    1.0120000000e+05
    5.6499433704e-03    1.0120000000e+05
    5.6598465890e-03    1.0120000000e+05
    5.6699970737e-03    1.0120000000e+05
    5.6799119338e-03    1.0120000000e+05
    5.6898398325e-03    1.0120000000e+05
    5.6997663341e-03    1.0120000000e+05
    5.7099405676e-03    1.0120000000e+05
    5.7198740542e-03    1.0120000000e+05
    5.7298229076e-03    1.0120000000e+05
    5.7397750206e-03    1.0120000000e+05
    5.7499730028e-03    1.0120000000e+05
    5.7599279098e-03    1.0120000000e+05
    5.7698916644e-03    1.0120000000e+05
    5.7798661292e-03    1.0120000000e+05
    5.7898373343e-03    1.0120000000e+05
    5.7998127304e-03    1.0120000000e+05
    5.8097937144e-03    1.0120000000e+05
    5.8197863400e-03    1.0120000000e+05
    5.8297784999e-03    1.0120000000e+05
    5.8397748508e-03    1.0120000000e+05
    5.8497725986e-03    1.0120000000e+05
    5.8597815223e-03    1.0120000000e+05
    5.8697941713e-03    1.0120000000e+05
    5.8798082173e-03    1.0120000000e+05
    5.8898245916e-03    1.0120000000e+05
    5.8998460881e-03    1.0120000000e+05
    5.9098741040e-03    1.0120000000e+05
    5.9199058451e-03    1.0120000000e+05
    5.9299403802e-03    1.0120000000e+05
    5.9399744496e-03    1.0120000000e+05
    5.9497659095e-03    1.0120000000e+05
    5.9598130174e-03    1.0120000000e+05
    5.9698694386e-03    1.0120000000e+05
    5.9799314477e-03    1.0120000000e+05
    5.9899939224e-03    1.0120000000e+05
    5.9997998178e-03    1.0120000000e+05
    6.0098543763e-03    1.0120000000e+05
    6.0199233703e-03    1.0120000000e+05
    6.0297516175e-03    1.0120000000e+05
    6.0398331843e-03    1.0120000000e+05
    6.0499124229e-03    1.0120000000e+05
    6.0599884018e-03    1.0120000000e+05
    6.0698105954e-03    1.0120000000e+05
    6.0798851773e-03    1.0120000000e+05
    6.0899639502e-03    1.0120000000e+05
    6.0998010449e-03    1.0120000000e+05
    6.1098914593e-03    1.0120000000e+05
    6.1199786142e-03    1.0120000000e+05
    6.1298115179e-03    1.0120000000e+05
    6.1398958787e-03    1.0120000000e+05
    6.1499797739e-03    1.0120000000e+05
    6.1598098837e-03    1.0120000000e+05
    6.1698933132e-03    1.0120000000e+05
    6.1799800023e-03    1.0120000000e+05
    6.1898175627e-03    1.0120000000e+05
    6.1999112368e-03    1.0120000000e+05
    6.2097520567e-03    1.0120000000e+05
    6.2198443338e-03    1.0120000000e+05
    6.2299352139e-03    1.0120000000e+05
    6.2397723086e-03    1.0120000000e+05
    6.2498617917e-03    1.0120000000e+05
    6.2599508092e-03    1.0120000000e+05
    6.2697874382e-03    1.0120000000e+05
    6.2798773870e-03    1.0120000000e+05
    6.2899668701e-03    1.0120000000e+05
    6.2998039648e-03    1.0120000000e+05
    6.3098925166e-03    1.0120000000e+05
    6.3199815340e-03    1.0120000000e+05
    6.3298176974e-03    1.0120000000e+05
    6.3399053179e-03    1.0120000000e+05
    6.3499934040e-03    1.0120000000e+05
    6.3598286361e-03    1.0120000000e+05
    6.3699157909e-03    1.0120000000e+05
    6.3797500916e-03    1.0120000000e+05
    6.3898367807e-03    1.0120000000e+05
    6.3999234699e-03    1.0120000000e+05
    6.4097573049e-03    1.0120000000e+05
    6.4198435284e-03    1.0120000000e+05
    6.4299292862e-03    1.0120000000e+05
    6.4397635870e-03    1.0120000000e+05
    6.4498512074e-03    1.0120000000e+05
    6.4599402249e-03    1.0120000000e+05
    6.4697763883e-03    1.0120000000e+05
    6.4798630774e-03    1.0120000000e+05
    6.4899488352e-03    1.0120000000e+05
    6.4997812733e-03    1.0120000000e+05
    6.5098651685e-03    1.0120000000e+05
    6.5199485980e-03    1.0120000000e+05
    6.5297815017e-03    1.0120000000e+05
    6.5398700535e-03    1.0120000000e+05
    6.5499604680e-03    1.0120000000e+05
    6.5597980283e-03    1.0120000000e+05
    6.5698879771e-03    1.0120000000e+05
    6.5799765289e-03    1.0120000000e+05
    6.5898122266e-03    1.0120000000e+05
    6.5998989157e-03    1.0120000000e+05
    6.6099851392e-03    1.0120000000e+05
    6.6198185086e-03    1.0120000000e+05
    6.6299070604e-03    1.0120000000e+05
    6.6397488117e-03    1.0120000000e+05
    6.6498424858e-03    1.0120000000e+05
    6.6599347629e-03    1.0120000000e+05
    6.6697737202e-03    1.0120000000e+05
    6.6798636690e-03    1.0120000000e+05
    6.6899554804e-03    1.0120000000e+05
    6.6998000257e-03    1.0120000000e+05
    6.7098974250e-03    1.0120000000e+05
    6.7199934274e-03    1.0120000000e+05
    6.7298361100e-03    1.0120000000e+05
    6.7399307154e-03    1.0120000000e+05
    6.7497738637e-03    1.0120000000e+05
    6.7598735914e-03    1.0120000000e+05
    6.7699733190e-03    1.0120000000e+05
    6.7798197269e-03    1.0120000000e+05
    6.7899175920e-03    1.0120000000e+05
    6.7997626029e-03    1.0120000000e+05
    6.8098641932e-03    1.0120000000e+05
    6.8199671805e-03    1.0120000000e+05
    6.8298159167e-03    1.0120000000e+05
    6.8399170414e-03    1.0120000000e+05
    6.8497648463e-03    1.0120000000e+05
    6.8598696962e-03    1.0120000000e+05
    6.8699745461e-03    1.0120000000e+05
    6.8798260763e-03    1.0120000000e+05
    6.8899295293e-03    1.0120000000e+05
    6.8997805938e-03    1.0120000000e+05
    6.9098877721e-03    1.0120000000e+05
    6.9199935533e-03    1.0120000000e+05
    6.9298469462e-03    1.0120000000e+05
    6.9399517961e-03    1.0120000000e+05
    6.9498065859e-03    1.0120000000e+05
    6.9599132985e-03    1.0120000000e+05
    6.9697671570e-03    1.0120000000e+05
    6.9798734039e-03    1.0120000000e+05
    6.9899805821e-03    1.0120000000e+05
    6.9998353720e-03    1.0120000000e+05
    7.0099420846e-03    1.0120000000e+05
    7.0197959431e-03    1.0120000000e+05
    7.0299035870e-03    1.0120000000e+05
    7.0397588424e-03    1.0120000000e+05
    7.0498655550e-03    1.0120000000e+05
    7.0599718019e-03    1.0120000000e+05
    7.0698270574e-03    1.0120000000e+05
    7.0799347013e-03    1.0120000000e+05
    7.0897890255e-03    1.0120000000e+05
    7.0998962037e-03    1.0120000000e+05
    7.1097509935e-03    1.0120000000e+05
    7.1198581718e-03    1.0120000000e+05
    7.1299648844e-03    1.0120000000e+05
    7.1398192085e-03    1.0120000000e+05
    7.1499259211e-03    1.0120000000e+05
    7.1597793140e-03    1.0120000000e+05
    7.1698855609e-03    1.0120000000e+05
    7.1799918078e-03    1.0120000000e+05
    7.1898447350e-03    1.0120000000e+05
    7.1999505162e-03    1.0120000000e+05
    7.2098034434e-03    1.0120000000e+05
    7.2199087590e-03    1.0120000000e+05
    7.2297612205e-03    1.0120000000e+05
    7.2398660704e-03    1.0120000000e+05
    7.2499699891e-03    1.0120000000e+05
    7.2598219849e-03    1.0120000000e+05
    7.2699263692e-03    1.0120000000e+05
    7.2797797620e-03    1.0120000000e+05
    7.2898883373e-03    1.0120000000e+05
    7.2999969125e-03    1.0120000000e+05
    7.3098517023e-03    1.0120000000e+05
    7.3199588805e-03    1.0120000000e+05
    7.3298127390e-03    1.0120000000e+05
    7.3399189860e-03    1.0120000000e+05
    7.3497723788e-03    1.0120000000e+05
    7.3598790914e-03    1.0120000000e+05
    7.3699853383e-03    1.0120000000e+05
    7.3798391968e-03    1.0120000000e+05
    7.3899463750e-03    1.0120000000e+05
    7.3998011649e-03    1.0120000000e+05
    7.4099083431e-03    1.0120000000e+05
    7.4197631329e-03    1.0120000000e+05
    7.4298721738e-03    1.0120000000e+05
    7.4399830773e-03    1.0120000000e+05
    7.4498406611e-03    1.0120000000e+05
    7.4599515647e-03    1.0120000000e+05
    7.4698184617e-03    1.0120000000e+05
    7.4799447320e-03    1.0120000000e+05
    7.4898214079e-03    1.0120000000e+05
    7.4999523349e-03    1.0120000000e+05
    7.5098294765e-03    1.0120000000e+05
    7.5199599378e-03    1.0120000000e+05
    7.5298366137e-03    1.0120000000e+05
    7.5399666093e-03    1.0120000000e+05
    7.5498423539e-03    1.0120000000e+05
    7.5599709526e-03    1.0120000000e+05
    7.5698466972e-03    1.0120000000e+05
    7.5799785554e-03    1.0120000000e+05
    7.5898617506e-03    1.0120000000e+05
    7.5999987312e-03    1.0120000000e+05
    7.6098828577e-03    1.0120000000e+05
    7.6197669841e-03    1.0120000000e+05
    7.6299034990e-03    1.0120000000e+05
    7.6397862285e-03    1.0120000000e+05
    7.6499218121e-03    1.0120000000e+05
    7.6598045416e-03    1.0120000000e+05
    7.6699415222e-03    1.0120000000e+05
    7.6798251830e-03    1.0120000000e+05
    7.6899616979e-03    1.0120000000e+05
    7.6998448931e-03    1.0120000000e+05
    7.7099809423e-03    1.0120000000e+05
    7.7198641375e-03    1.0120000000e+05
    7.7297468670e-03    1.0120000000e+05
    7.7398852445e-03    1.0120000000e+05
    7.7497698367e-03    1.0120000000e+05
    7.7599100769e-03    1.0120000000e+05
    7.7697988600e-03    1.0120000000e+05
    7.7799446881e-03    1.0120000000e+05
    7.7898441814e-03    1.0120000000e+05
    7.7999983914e-03    1.0120000000e+05
    7.8098983504e-03    1.0120000000e+05
    7.8198090196e-03    1.0120000000e+05
    7.8299827874e-03    1.0120000000e+05
    7.8399078920e-03    1.0120000000e+05
    7.8498311341e-03    1.0120000000e+05
    7.8597562388e-03    1.0120000000e+05
    7.8699560836e-03    1.0120000000e+05
    7.8799081966e-03    1.0120000000e+05
    7.8898640350e-03    1.0120000000e+05
    7.8998198733e-03    1.0120000000e+05
    7.9097803682e-03    1.0120000000e+05
    7.9197594896e-03    1.0120000000e+05
    7.9297451302e-03    1.0120000000e+05
    7.9399906099e-03    1.0120000000e+05
    7.9499846324e-03    1.0120000000e+05
    7.9599786550e-03    1.0120000000e+05
    7.9699903727e-03    1.0120000000e+05
    7.9797469079e-03    1.0120000000e+05
    7.9897642136e-03    1.0120000000e+05
    7.9997954890e-03    1.0120000000e+05
    8.0098267645e-03    1.0120000000e+05
    8.0198710784e-03    1.0120000000e+05
    8.0299153924e-03    1.0120000000e+05
    8.0399671569e-03    1.0120000000e+05
    8.0497758463e-03    1.0120000000e+05
    8.0598443747e-03    1.0120000000e+05
    8.0699166283e-03    1.0120000000e+05
    8.0799870193e-03    1.0120000000e+05
    8.0898106098e-03    1.0120000000e+05
    8.0999098718e-03    1.0120000000e+05
    8.1097520888e-03    1.0120000000e+05
    8.1198550761e-03    1.0120000000e+05
    8.1299552694e-03    1.0120000000e+05
    8.1398002803e-03    1.0120000000e+05
    8.1499256194e-03    1.0120000000e+05
    8.1597957760e-03    1.0120000000e+05
    8.1699294969e-03    1.0120000000e+05
    8.1797996536e-03    1.0120000000e+05
    8.1899315119e-03    1.0120000000e+05
    8.1998165697e-03    1.0120000000e+05
    8.2099717110e-03    1.0120000000e+05
    8.2198726013e-03    1.0120000000e+05
    8.2297762856e-03    1.0120000000e+05
    8.2399407402e-03    1.0120000000e+05
    8.2498509437e-03    1.0120000000e+05
    8.2597704604e-03    1.0120000000e+05
    8.2699563354e-03    1.0120000000e+05
    8.2798842341e-03    1.0120000000e+05
    8.2898158580e-03    1.0120000000e+05
    8.2997512072e-03    1.0120000000e+05
    8.3099575713e-03    1.0120000000e+05
    8.3199068904e-03    1.0120000000e+05
    8.3298617974e-03    1.0120000000e+05
    8.3398176357e-03    1.0120000000e+05
    8.3497744054e-03    1.0120000000e+05
    8.3597442135e-03    1.0120000000e+05
    8.3699841052e-03    1.0120000000e+05
    8.3799669519e-03    1.0120000000e+05
    8.3899497986e-03    1.0120000000e+05
    8.3999345079e-03    1.0120000000e+05
    8.4099266678e-03    1.0120000000e+05
    8.4199244156e-03    1.0120000000e+05
    8.4299277514e-03    1.0120000000e+05
    8.4399376065e-03    1.0120000000e+05
    8.4499446675e-03    1.0120000000e+05
    8.4599545226e-03    1.0120000000e+05
    8.4699718282e-03    1.0120000000e+05
    8.4799975157e-03    1.0120000000e+05
    8.4897680208e-03    1.0120000000e+05
    8.4998039529e-03    1.0120000000e+05
    8.5098426789e-03    1.0120000000e+05
    8.5198814049e-03    1.0120000000e+05
    8.5299238563e-03    1.0120000000e+05
    8.5399774835e-03    1.0120000000e+05
    8.5497712716e-03    1.0120000000e+05
    8.5598342121e-03    1.0120000000e+05
    8.5698971525e-03    1.0120000000e+05
    8.5799628869e-03    1.0120000000e+05
    8.5897697136e-03    1.0120000000e+05
    8.5998466238e-03    1.0120000000e+05
    8.6099309847e-03    1.0120000000e+05
    8.6197536439e-03    1.0120000000e+05
    8.6298426613e-03    1.0120000000e+05
    8.6399363354e-03    1.0120000000e+05
    8.6497683078e-03    1.0120000000e+05
    8.6598722264e-03    1.0120000000e+05
    8.6699780077e-03    1.0120000000e+05
    8.6798220873e-03    1.0120000000e+05
    8.6899390444e-03    1.0120000000e+05
    8.6997924373e-03    1.0120000000e+05
    8.7099159136e-03    1.0120000000e+05
    8.7197758257e-03    1.0120000000e+05
    8.7299076840e-03    1.0120000000e+05
    8.7397778407e-03    1.0120000000e+05
    8.7499171495e-03    1.0120000000e+05
    8.7597938254e-03    1.0120000000e+05
    8.7699377909e-03    1.0120000000e+05
    8.7798191234e-03    1.0120000000e+05
    8.7899733335e-03    1.0120000000e+05
    8.7998649105e-03    1.0120000000e+05
    8.8097630069e-03    1.0120000000e+05
    8.8199321181e-03    1.0120000000e+05
    8.8298385963e-03    1.0120000000e+05
    8.8397441432e-03    1.0120000000e+05
    8.8499188423e-03    1.0120000000e+05
    8.8598337024e-03    1.0120000000e+05
    8.8697494939e-03    1.0120000000e+05
    8.8799372315e-03    1.0120000000e+05
    8.8898614049e-03    1.0120000000e+05
    8.8997874409e-03    1.0120000000e+05
    8.9099854231e-03    1.0120000000e+05
    8.9199170470e-03    1.0120000000e+05
    8.9298570529e-03    1.0120000000e+05
    8.9398026466e-03    1.0120000000e+05
    8.9497482404e-03    1.0120000000e+05
    8.9599695057e-03    1.0120000000e+05
    8.9699188247e-03    1.0120000000e+05
    8.9798728004e-03    1.0120000000e+05
    8.9898314327e-03    1.0120000000e+05
    8.9997937903e-03    1.0120000000e+05
    9.0097645298e-03    1.0120000000e+05
    9.0197352692e-03    1.0120000000e+05
    9.0299779549e-03    1.0120000000e+05
    9.0399533510e-03    1.0120000000e+05
    9.0499278158e-03    1.0120000000e+05
    9.0599134564e-03    1.0120000000e+05
    9.0699000284e-03    1.0120000000e+05
    9.0798912570e-03    1.0120000000e+05
    9.0898843482e-03    1.0120000000e+05
    9.0998802334e-03    1.0120000000e+05
    9.1098826379e-03    1.0120000000e+05
    9.1198831797e-03    1.0120000000e+05
    9.1298865154e-03    1.0120000000e+05
    9.1398991644e-03    1.0120000000e+05
    9.1499099508e-03    1.0120000000e+05
    9.1599291191e-03    1.0120000000e+05
    9.1699464247e-03    1.0120000000e+05
    9.1799665242e-03    1.0120000000e+05
    9.1899931431e-03    1.0120000000e+05
    9.1997496784e-03    1.0120000000e+05
    9.2097846791e-03    1.0120000000e+05
    9.2198224738e-03    1.0120000000e+05
    9.2298602685e-03    1.0120000000e+05
    9.2399073765e-03    1.0120000000e+05
    9.2499516904e-03    1.0120000000e+05
    9.2597296461e-03    1.0120000000e+05
    9.2697823420e-03    1.0120000000e+05
    9.2798359692e-03    1.0120000000e+05
    9.2899007723e-03    1.0120000000e+05
    9.2999581248e-03    1.0120000000e+05
    9.3097519130e-03    1.0120000000e+05
    9.3198195100e-03    1.0120000000e+05
    9.3298861757e-03    1.0120000000e+05
    9.3399668112e-03    1.0120000000e+05
    9.3497717753e-03    1.0120000000e+05
    9.3598533422e-03    1.0120000000e+05
    9.3699386343e-03    1.0120000000e+05
    9.3797501177e-03    1.0120000000e+05
    9.3898447230e-03    1.0120000000e+05
    9.3999356031e-03    1.0120000000e+05
    9.4097582623e-03    1.0120000000e+05
    9.4198631123e-03    1.0120000000e+05
    9.4299651682e-03    1.0120000000e+05
    9.4397990033e-03    1.0120000000e+05
    9.4499038532e-03    1.0120000000e+05
    9.4597367570e-03    1.0120000000e+05
    9.4698583707e-03    1.0120000000e+05
    9.4799725339e-03    1.0120000000e+05
    9.4898231328e-03    1.0120000000e+05
    9.4999484718e-03    1.0120000000e+05
    9.5098027959e-03    1.0120000000e+05
    9.5199383795e-03    1.0120000000e+05
    9.5297954977e-03    1.0120000000e+05
    9.5399310812e-03    1.0120000000e+05
    9.5498012379e-03    1.0120000000e+05
    9.5599414781e-03    1.0120000000e+05
    9.5698190853e-03    1.0120000000e+05
    9.5799639821e-03    1.0120000000e+05
    9.5898425207e-03    1.0120000000e+05
    9.5997313038e-03    1.0120000000e+05
    9.6098892391e-03    1.0120000000e+05
    9.6197826788e-03    1.0120000000e+05
    9.6299480647e-03    1.0120000000e+05
    9.6398405731e-03    1.0120000000e+05
    9.6497423947e-03    1.0120000000e+05
    9.6599105746e-03    1.0120000000e+05
    9.6698179841e-03    1.0120000000e+05
    9.6797291189e-03    1.0120000000e+05
    9.6899140626e-03    1.0120000000e+05
    9.6998345107e-03    1.0120000000e+05
    9.7097503021e-03    1.0120000000e+05
    9.7199482843e-03    1.0120000000e+05
    9.7298761830e-03    1.0120000000e+05
    9.7397975624e-03    1.0120000000e+05
    9.7497319803e-03    1.0120000000e+05
    9.7599430010e-03    1.0120000000e+05
    9.7698802128e-03    1.0120000000e+05
    9.7798267379e-03    1.0120000000e+05
    9.7897667438e-03    1.0120000000e+05
    9.7999973223e-03    1.0120000000e+05
    9.8099512979e-03    1.0120000000e+05
    9.8199043423e-03    1.0120000000e+05
    9.8298694938e-03    1.0120000000e+05
    9.8398309201e-03    1.0120000000e+05
    9.8497979343e-03    1.0120000000e+05
    9.8597705364e-03    1.0120000000e+05
    9.8697375506e-03    1.0120000000e+05
    9.8799988627e-03    1.0120000000e+05
    9.8899751902e-03    1.0120000000e+05
    9.8999561742e-03    1.0120000000e+05
    9.9099492654e-03    1.0120000000e+05
    9.9199395627e-03    1.0120000000e+05
    9.9299447611e-03    1.0120000000e+05
    9.9399546161e-03    1.0120000000e+05
    9.9499672651e-03    1.0120000000e+05
    9.9599799141e-03    1.0120000000e+05
    9.9699888378e-03    1.0120000000e+05
    9.9799986929e-03    1.0120000000e+05
    9.9897291511e-03    1.0120000000e+05
    9.9997380748e-03    1.0120000000e+05
    1.0009750724e-02    1.0120000000e+05
    1.0019765235e-02    1.0120000000e+05
    1.0029780678e-02    1.0120000000e+05
    1.0039796121e-02    1.0120000000e+05
    1.0049808770e-02    1.0120000000e+05
    1.0059823282e-02    1.0120000000e+05
    1.0069839656e-02    1.0120000000e+05
    1.0079855099e-02    1.0120000000e+05
    1.0089874268e-02    1.0120000000e+05
    1.0099892505e-02    1.0120000000e+05
    1.0109915398e-02    1.0120000000e+05
    1.0119939223e-02    1.0120000000e+05
    1.0129963048e-02    1.0120000000e+05
    1.0139991529e-02    1.0120000000e+05
    1.0149746202e-02    1.0120000000e+05
    1.0159779340e-02    1.0120000000e+05
    1.0169824585e-02    1.0120000000e+05
    1.0179873556e-02    1.0120000000e+05
    1.0189924389e-02    1.0120000000e+05
    1.0199975222e-02    1.0120000000e+05
    1.0209745727e-02    1.0120000000e+05
    1.0219793767e-02    1.0120000000e+05
    1.0229839943e-02    1.0120000000e+05
    1.0239886120e-02    1.0120000000e+05
    1.0249933228e-02    1.0120000000e+05
    1.0259981267e-02    1.0120000000e+05
    1.0269752704e-02    1.0120000000e+05
    1.0279804468e-02    1.0120000000e+05
    1.0289855301e-02    1.0120000000e+05
    1.0299905203e-02    1.0120000000e+05
    1.0309954174e-02    1.0120000000e+05
    1.0319722816e-02    1.0120000000e+05
    1.0329769924e-02    1.0120000000e+05
    1.0339817032e-02    1.0120000000e+05
    1.0349864140e-02    1.0120000000e+05
    1.0359913111e-02    1.0120000000e+05
    1.0369961150e-02    1.0120000000e+05
    1.0379728861e-02    1.0120000000e+05
    1.0389775038e-02    1.0120000000e+05
    1.0399821214e-02    1.0120000000e+05
    1.0409865528e-02    1.0120000000e+05
    1.0419909842e-02    1.0120000000e+05
    1.0429956019e-02    1.0120000000e+05
    1.0439722799e-02    1.0120000000e+05
    1.0449766181e-02    1.0120000000e+05
    1.0459811427e-02    1.0120000000e+05
    1.0469855741e-02    1.0120000000e+05
    1.0479902849e-02    1.0120000000e+05
    1.0489949025e-02    1.0120000000e+05
    1.0499996133e-02    1.0120000000e+05
    1.0509765707e-02    1.0120000000e+05
    1.0519811884e-02    1.0120000000e+05
    1.0529860854e-02    1.0120000000e+05
    1.0539914481e-02    1.0120000000e+05
    1.0549971834e-02    1.0120000000e+05
    1.0559751652e-02    1.0120000000e+05
    1.0569815524e-02    1.0120000000e+05
    1.0579881258e-02    1.0120000000e+05
    1.0589949787e-02    1.0120000000e+05
    1.0599737056e-02    1.0120000000e+05
    1.0609804653e-02    1.0120000000e+05
    1.0619881563e-02    1.0120000000e+05
    1.0629964061e-02    1.0120000000e+05
    1.0639765300e-02    1.0120000000e+05
    1.0649852455e-02    1.0120000000e+05
    1.0659946129e-02    1.0120000000e+05
    1.0669762269e-02    1.0120000000e+05
    1.0679860599e-02    1.0120000000e+05
    1.0689957067e-02    1.0120000000e+05
    1.0699772276e-02    1.0120000000e+05
    1.0709865950e-02    1.0120000000e+05
    1.0719957761e-02    1.0120000000e+05
    1.0729769245e-02    1.0120000000e+05
    1.0739860125e-02    1.0120000000e+05
    1.0749950074e-02    1.0120000000e+05
    1.0759760626e-02    1.0120000000e+05
    1.0769851506e-02    1.0120000000e+05
    1.0779943317e-02    1.0120000000e+05
    1.0789755732e-02    1.0120000000e+05
    1.0799848475e-02    1.0120000000e+05
    1.0809940286e-02    1.0120000000e+05
    1.0819750838e-02    1.0120000000e+05
    1.0829841718e-02    1.0120000000e+05
    1.0839930736e-02    1.0120000000e+05
    1.0849738494e-02    1.0120000000e+05
    1.0859826580e-02    1.0120000000e+05
    1.0869913734e-02    1.0120000000e+05
    1.0879720561e-02    1.0120000000e+05
    1.0889807716e-02    1.0120000000e+05
    1.0899893939e-02    1.0120000000e+05
    1.0909979232e-02    1.0120000000e+05
    1.0919784196e-02    1.0120000000e+05
    1.0929868557e-02    1.0120000000e+05
    1.0939951986e-02    1.0120000000e+05
    1.0949754156e-02    1.0120000000e+05
    1.0959836654e-02    1.0120000000e+05
    1.0969920084e-02    1.0120000000e+05
    1.0979722254e-02    1.0120000000e+05
    1.0989804752e-02    1.0120000000e+05
    1.0999887250e-02    1.0120000000e+05
    1.1009968817e-02    1.0120000000e+05
    1.1019769125e-02    1.0120000000e+05
    1.1029851623e-02    1.0120000000e+05
    1.1039938778e-02    1.0120000000e+05
    1.1049745604e-02    1.0120000000e+05
    1.1059832759e-02    1.0120000000e+05
    1.1069918051e-02    1.0120000000e+05
    1.1079725809e-02    1.0120000000e+05
    1.1089818552e-02    1.0120000000e+05
    1.1099918745e-02    1.0120000000e+05
    1.1109745130e-02    1.0120000000e+05
    1.1119856499e-02    1.0120000000e+05
    1.1129967868e-02    1.0120000000e+05
    1.1139803566e-02    1.0120000000e+05
    1.1149935424e-02    1.0120000000e+05
    1.1159794405e-02    1.0120000000e+05
    1.1169943027e-02    1.0120000000e+05
    1.1179813184e-02    1.0120000000e+05
    1.1189970188e-02    1.0120000000e+05
    1.1199876666e-02    1.0120000000e+05
    1.1209832504e-02    1.0120000000e+05
    1.1219839565e-02    1.0120000000e+05
    1.1229894124e-02    1.0120000000e+05
    1.1239987798e-02    1.0120000000e+05
    1.1249825358e-02    1.0120000000e+05
    1.1259976774e-02    1.0120000000e+05
    1.1269854382e-02    1.0120000000e+05
    1.1279743165e-02    1.0120000000e+05
    1.1289932765e-02    1.0120000000e+05
    1.1299833655e-02    1.0120000000e+05
    1.1309745722e-02    1.0120000000e+05
    1.1319973506e-02    1.0120000000e+05
    1.1329936795e-02    1.0120000000e+05
    1.1339930817e-02    1.0120000000e+05
    1.1349954642e-02    1.0120000000e+05
    1.1359709315e-02    1.0120000000e+05
    1.1369785294e-02    1.0120000000e+05
    1.1379883625e-02    1.0120000000e+05
    1.1389706284e-02    1.0120000000e+05
    1.1399844661e-02    1.0120000000e+05
    1.1409997940e-02    1.0120000000e+05
    1.1419863440e-02    1.0120000000e+05
    1.1429737322e-02    1.0120000000e+05
    1.1439919472e-02    1.0120000000e+05
    1.1449815705e-02    1.0120000000e+05
    1.1459728703e-02    1.0120000000e+05
    1.1469962075e-02    1.0120000000e+05
    1.1479914188e-02    1.0120000000e+05
    1.1489886791e-02    1.0120000000e+05
    1.1499886401e-02    1.0120000000e+05
    1.1509933509e-02    1.0120000000e+05
    1.1519759893e-02    1.0120000000e+05
    1.1529718526e-02    1.0120000000e+05
    1.1539853178e-02    1.0120000000e+05
    1.1549864896e-02    1.0120000000e+05
    1.1559746228e-02    1.0120000000e+05
    1.1569820344e-02    1.0120000000e+05
    1.1579740793e-02    1.0120000000e+05
    1.1589838192e-02    1.0120000000e+05
    1.1599752121e-02    1.0120000000e+05
    1.1609824374e-02    1.0120000000e+05
    1.1619684286e-02    1.0120000000e+05
    1.1629688554e-02    1.0120000000e+05
    1.1639832519e-02    1.0120000000e+05
    1.1649733409e-02    1.0120000000e+05
    1.1659762822e-02    1.0120000000e+05
    1.1669918895e-02    1.0120000000e+05
    1.1679803953e-02    1.0120000000e+05
    1.1689805426e-02    1.0120000000e+05
    1.1699923314e-02    1.0120000000e+05
    1.1709744111e-02    1.0120000000e+05
    1.1719671078e-02    1.0120000000e+05
    1.1729704216e-02    1.0120000000e+05
    1.1739843525e-02    1.0120000000e+05
    1.1749659665e-02    1.0120000000e+05
    1.1759572662e-02    1.0120000000e+05
    1.1769583449e-02    1.0120000000e+05
    1.1779693887e-02    1.0120000000e+05
    1.1789902113e-02    1.0120000000e+05
    1.1799742468e-02    1.0120000000e+05
    1.1809647083e-02    1.0120000000e+05
    1.1819613166e-02    1.0120000000e+05
    1.1829634197e-02    1.0120000000e+05
    1.1839696206e-02    1.0120000000e+05
    1.1849787086e-02    1.0120000000e+05
    1.1859911494e-02    1.0120000000e+05
    1.1869606562e-02    1.0120000000e+05
    1.1879808269e-02    1.0120000000e+05
    1.1889582500e-02    1.0120000000e+05
    1.1899875477e-02    1.0120000000e+05
    1.1909732595e-02    1.0120000000e+05
    1.1919637211e-02    1.0120000000e+05
    1.1929570697e-02    1.0120000000e+05
    1.1939538643e-02    1.0120000000e+05
    1.1949562468e-02    1.0120000000e+05
    1.1959612370e-02    1.0120000000e+05
    1.1969717219e-02    1.0120000000e+05
    1.1979863048e-02    1.0120000000e+05
    1.1989534833e-02    1.0120000000e+05
    1.1999780312e-02    1.0120000000e+05
    1.2009997852e-02    1.0120000000e+05
    1.2019835413e-02    1.0120000000e+05
    1.2029644102e-02    1.0120000000e+05
    1.2039553374e-02    1.0120000000e+05
    1.2049914338e-02    1.0120000000e+05
    1.2059904635e-02    1.0120000000e+05
    1.2069880962e-02    1.0120000000e+05
    1.2079836801e-02    1.0120000000e+05
    1.2089891359e-02    1.0120000000e+05
    1.2099989690e-02    1.0120000000e+05
    1.2109578587e-02    1.0120000000e+05
    1.2119714171e-02    1.0120000000e+05
    1.2129890732e-02    1.0120000000e+05
    1.2139525265e-02    1.0120000000e+05
    1.2149736285e-02    1.0120000000e+05
    1.2159498408e-02    1.0120000000e+05
    1.2169818394e-02    1.0120000000e+05
    1.2179578654e-02    1.0120000000e+05
    1.2189932168e-02    1.0120000000e+05
    1.2199851684e-02    1.0120000000e+05
    1.2209764682e-02    1.0120000000e+05
    1.2219751254e-02    1.0120000000e+05
    1.2229679152e-02    1.0120000000e+05
    1.2239611708e-02    1.0120000000e+05
    1.2249591760e-02    1.0120000000e+05
    1.2259578332e-02    1.0120000000e+05
    1.2269675732e-02    1.0120000000e+05
    1.2279753573e-02    1.0120000000e+05
    1.2289842591e-02    1.0120000000e+05
    1.2299423106e-02    1.0120000000e+05
    1.2309598736e-02    1.0120000000e+05
    1.2319772504e-02    1.0120000000e+05
    1.2329971418e-02    1.0120000000e+05
    1.2339659967e-02    1.0120000000e+05
    1.2349878438e-02    1.0120000000e+05
    1.2359605171e-02    1.0120000000e+05
    1.2369894423e-02    1.0120000000e+05
    1.2379622087e-02    1.0120000000e+05
    1.2389942072e-02    1.0120000000e+05
    1.2399706058e-02    1.0120000000e+05
    1.2409437448e-02    1.0120000000e+05
    1.2419695035e-02    1.0120000000e+05
    1.2429872528e-02    1.0120000000e+05
    1.2439864688e-02    1.0120000000e+05
    1.2449651957e-02    1.0120000000e+05
    1.2459644116e-02    1.0120000000e+05
    1.2469787151e-02    1.0120000000e+05
    1.2479589321e-02    1.0120000000e+05
    1.2489944696e-02    1.0120000000e+05
    1.2499916367e-02    1.0120000000e+05
    1.2509926222e-02    1.0120000000e+05
    1.2519935146e-02    1.0120000000e+05
    1.2529904954e-02    1.0120000000e+05
    1.2539796531e-02    1.0120000000e+05
    1.2549908832e-02    1.0120000000e+05
    1.2559820898e-02    1.0120000000e+05
    1.2569789775e-02    1.0120000000e+05
    1.2579987757e-02    1.0120000000e+05
    1.2589971535e-02    1.0120000000e+05
    1.2599842623e-02    1.0120000000e+05
    1.2609828264e-02    1.0120000000e+05
    1.2619911693e-02    1.0120000000e+05
    1.2629978359e-02    1.0120000000e+05
    1.2639999390e-02    1.0120000000e+05
    1.2649855576e-02    1.0120000000e+05
    1.2659967877e-02    1.0120000000e+05
    1.2669871561e-02    1.0120000000e+05
    1.2679904699e-02    1.0120000000e+05
    1.2689986266e-02    1.0120000000e+05
    1.2699976563e-02    1.0120000000e+05
    1.2709951028e-02    1.0120000000e+05
    1.2719988823e-02    1.0120000000e+05
    1.2729886919e-02    1.0120000000e+05
    1.2739846483e-02    1.0120000000e+05
    1.2749838643e-02    1.0120000000e+05
    1.2759837322e-02    1.0120000000e+05
    1.2769808993e-02    1.0120000000e+05
    1.2779925950e-02    1.0120000000e+05
    1.2789948843e-02    1.0120000000e+05
    1.2799855322e-02    1.0120000000e+05
    1.2809832580e-02    1.0120000000e+05
    1.2819900177e-02    1.0120000000e+05
    1.2829788961e-02    1.0120000000e+05
    1.2839967385e-02    1.0120000000e+05
    1.2849965133e-02    1.0120000000e+05
    1.2859778479e-02    1.0120000000e+05
    1.2869860046e-02    1.0120000000e+05
    1.2879976071e-02    1.0120000000e+05
    1.2889899313e-02    1.0120000000e+05
    1.2899847701e-02    1.0120000000e+05
    1.2909837067e-02    1.0120000000e+05
    1.2919835746e-02    1.0120000000e+05
    1.2929885648e-02    1.0120000000e+05
    1.2939929031e-02    1.0120000000e+05
    1.2949797325e-02    1.0120000000e+05
    1.2959888205e-02    1.0120000000e+05
    1.2969798408e-02    1.0120000000e+05
    1.2979932129e-02    1.0120000000e+05
    1.2989873998e-02    1.0120000000e+05
    1.2999833561e-02    1.0120000000e+05
    1.3009787537e-02    1.0120000000e+05
    1.3019788079e-02    1.0120000000e+05
    1.3029797003e-02    1.0120000000e+05
    1.3039833866e-02    1.0120000000e+05
    1.3049876317e-02    1.0120000000e+05
    1.3059964404e-02    1.0120000000e+05
    1.3069812208e-02    1.0120000000e+05
    1.3079916127e-02    1.0120000000e+05
    1.3089815155e-02    1.0120000000e+05
    1.3099961914e-02    1.0120000000e+05
    1.3109876774e-02    1.0120000000e+05
    1.3119821437e-02    1.0120000000e+05
    1.3129784726e-02    1.0120000000e+05
    1.3139988296e-02    1.0120000000e+05
    1.3149976730e-02    1.0120000000e+05
    1.3159988448e-02    1.0120000000e+05
    1.3169996440e-02    1.0120000000e+05
    1.3179776259e-02    1.0120000000e+05
    1.3189829886e-02    1.0120000000e+05
    1.3199884444e-02    1.0120000000e+05
    1.3209941797e-02    1.0120000000e+05
    1.3219785877e-02    1.0120000000e+05
    1.3229886070e-02    1.0120000000e+05
    1.3239976019e-02    1.0120000000e+05
    1.3249849901e-02    1.0120000000e+05
    1.3259992003e-02    1.0120000000e+05
    1.3269872405e-02    1.0120000000e+05
    1.3279769570e-02    1.0120000000e+05
    1.3289948925e-02    1.0120000000e+05
    1.3299870305e-02    1.0120000000e+05
    1.3309797272e-02    1.0120000000e+05
    1.3319997117e-02    1.0120000000e+05
    1.3329956681e-02    1.0120000000e+05
    1.3339906000e-02    1.0120000000e+05
    1.3349881396e-02    1.0120000000e+05
    1.3359881006e-02    1.0120000000e+05
    1.3369862922e-02    1.0120000000e+05
    1.3379865326e-02    1.0120000000e+05
    1.3389892876e-02    1.0120000000e+05
    1.3399916701e-02    1.0120000000e+05
    1.3409936801e-02    1.0120000000e+05
    1.3419975527e-02    1.0120000000e+05
    1.3429780491e-02    1.0120000000e+05
    1.3439833187e-02    1.0120000000e+05
    1.3449898921e-02    1.0120000000e+05
    1.3459981419e-02    1.0120000000e+05
    1.3469811529e-02    1.0120000000e+05
    1.3479903340e-02    1.0120000000e+05
    1.3489756733e-02    1.0120000000e+05
    1.3499869034e-02    1.0120000000e+05
    1.3509979472e-02    1.0120000000e+05
    1.3519854285e-02    1.0120000000e+05
    1.3529995456e-02    1.0120000000e+05
    1.3539880514e-02    1.0120000000e+05
    1.3549771160e-02    1.0120000000e+05
    1.3559930027e-02    1.0120000000e+05
    1.3569844887e-02    1.0120000000e+05
    1.3579760678e-02    1.0120000000e+05
    1.3589939103e-02    1.0120000000e+05
    1.3599869795e-02    1.0120000000e+05
    1.3609808870e-02    1.0120000000e+05
    1.3619757257e-02    1.0120000000e+05
    1.3629964553e-02    1.0120000000e+05
    1.3639923185e-02    1.0120000000e+05
    1.3649883680e-02    1.0120000000e+05
    1.3659859076e-02    1.0120000000e+05
    1.3669839129e-02    1.0120000000e+05
    1.3679821976e-02    1.0120000000e+05
    1.3689806685e-02    1.0120000000e+05
    1.3699804433e-02    1.0120000000e+05
    1.3709807768e-02    1.0120000000e+05
    1.3719815761e-02    1.0120000000e+05
    1.3729824685e-02    1.0120000000e+05
    1.3739842921e-02    1.0120000000e+05
    1.3749868609e-02    1.0120000000e+05
    1.3759898953e-02    1.0120000000e+05
    1.3769933023e-02    1.0120000000e+05
    1.3779966161e-02    1.0120000000e+05
    1.3789750636e-02    1.0120000000e+05
    1.3799801469e-02    1.0120000000e+05
    1.3809855096e-02    1.0120000000e+05
    1.3819910586e-02    1.0120000000e+05
    1.3829971664e-02    1.0120000000e+05
    1.3839782216e-02    1.0120000000e+05
    1.3849857263e-02    1.0120000000e+05
    1.3859928586e-02    1.0120000000e+05
    1.3869746588e-02    1.0120000000e+05
    1.3879826292e-02    1.0120000000e+05
    1.3889913447e-02    1.0120000000e+05
    1.3899748214e-02    1.0120000000e+05
    1.3909841888e-02    1.0120000000e+05
    1.3919939287e-02    1.0120000000e+05
    1.3929784298e-02    1.0120000000e+05
    1.3939887285e-02    1.0120000000e+05
    1.3949993066e-02    1.0120000000e+05
    1.3959836215e-02    1.0120000000e+05
    1.3969943859e-02    1.0120000000e+05
    1.3979799114e-02    1.0120000000e+05
    1.3989917003e-02    1.0120000000e+05
    1.3999780640e-02    1.0120000000e+05
    1.4009906910e-02    1.0120000000e+05
    1.4019774273e-02    1.0120000000e+05
    1.4029901475e-02    1.0120000000e+05
    1.4039768837e-02    1.0120000000e+05
    1.4049895108e-02    1.0120000000e+05
    1.4059761539e-02    1.0120000000e+05
    1.4069887809e-02    1.0120000000e+05
    1.4079754241e-02    1.0120000000e+05
    1.4089879580e-02    1.0120000000e+05
    1.4099746011e-02    1.0120000000e+05
    1.4109872282e-02    1.0120000000e+05
    1.4119999483e-02    1.0120000000e+05
    1.4129867777e-02    1.0120000000e+05
    1.4139996842e-02    1.0120000000e+05
    1.4149866998e-02    1.0120000000e+05
    1.4159997925e-02    1.0120000000e+05
    1.4169869013e-02    1.0120000000e+05
    1.4179741032e-02    1.0120000000e+05
    1.4189871959e-02    1.0120000000e+05
    1.4199743979e-02    1.0120000000e+05
    1.4209874906e-02    1.0120000000e+05
    1.4219746925e-02    1.0120000000e+05
    1.4229878783e-02    1.0120000000e+05
    1.4239751734e-02    1.0120000000e+05
    1.4249884523e-02    1.0120000000e+05
    1.4259758405e-02    1.0120000000e+05
    1.4269893989e-02    1.0120000000e+05
    1.4279768802e-02    1.0120000000e+05
    1.4289904386e-02    1.0120000000e+05
    1.4299780130e-02    1.0120000000e+05
    1.4309917577e-02    1.0120000000e+05
    1.4319794253e-02    1.0120000000e+05
    1.4329932630e-02    1.0120000000e+05
    1.4339810237e-02    1.0120000000e+05
    1.4349948615e-02    1.0120000000e+05
    1.4359827153e-02    1.0120000000e+05
    1.4369966462e-02    1.0120000000e+05
    1.4379845001e-02    1.0120000000e+05
    1.4389985241e-02    1.0120000000e+05
    1.4399864711e-02    1.0120000000e+05
    1.4409745112e-02    1.0120000000e+05
    1.4419884421e-02    1.0120000000e+05
    1.4429763891e-02    1.0120000000e+05
    1.4439904131e-02    1.0120000000e+05
    1.4449784532e-02    1.0120000000e+05
    1.4459926635e-02    1.0120000000e+05
    1.4469809830e-02    1.0120000000e+05
    1.4479958452e-02    1.0120000000e+05
    1.4489850961e-02    1.0120000000e+05
    1.4499747194e-02    1.0120000000e+05
    1.4509903267e-02    1.0120000000e+05
    1.4519797638e-02    1.0120000000e+05
    1.4529950917e-02    1.0120000000e+05
    1.4539842494e-02    1.0120000000e+05
    1.4549994841e-02    1.0120000000e+05
    1.4559885487e-02    1.0120000000e+05
    1.4569777995e-02    1.0120000000e+05
    1.4579934999e-02    1.0120000000e+05
    1.4589833096e-02    1.0120000000e+05
    1.4599992894e-02    1.0120000000e+05
    1.4609891921e-02    1.0120000000e+05
    1.4619790949e-02    1.0120000000e+05
    1.4629949816e-02    1.0120000000e+05
    1.4639848843e-02    1.0120000000e+05
    1.4649747871e-02    1.0120000000e+05
    1.4659906738e-02    1.0120000000e+05
    1.4669805765e-02    1.0120000000e+05
    1.4679964632e-02    1.0120000000e+05
    1.4689863659e-02    1.0120000000e+05
    1.4699763618e-02    1.0120000000e+05
    1.4709924348e-02    1.0120000000e+05
    1.4719824307e-02    1.0120000000e+05
    1.4729984105e-02    1.0120000000e+05
    1.4739884064e-02    1.0120000000e+05
    1.4749784023e-02    1.0120000000e+05
    1.4759943821e-02    1.0120000000e+05
    1.4769843780e-02    1.0120000000e+05
    1.4779744670e-02    1.0120000000e+05
    1.4789905399e-02    1.0120000000e+05
    1.4799806289e-02    1.0120000000e+05
    1.4809967019e-02    1.0120000000e+05
    1.4819866978e-02    1.0120000000e+05
    1.4829767868e-02    1.0120000000e+05
    1.4839928597e-02    1.0120000000e+05
    1.4849829488e-02    1.0120000000e+05
    1.4859991148e-02    1.0120000000e+05
    1.4869892038e-02    1.0120000000e+05
    1.4879791997e-02    1.0120000000e+05
    1.4889953658e-02    1.0120000000e+05
    1.4899854548e-02    1.0120000000e+05
    1.4909755439e-02    1.0120000000e+05
    1.4919917099e-02    1.0120000000e+05
    1.4929817989e-02    1.0120000000e+05
    1.4939979650e-02    1.0120000000e+05
    1.4949880540e-02    1.0120000000e+05
    1.4959781431e-02    1.0120000000e+05
    1.4969943091e-02    1.0120000000e+05
    1.4979843982e-02    1.0120000000e+05
    1.4989745803e-02    1.0120000000e+05
    1.4999907464e-02    1.0120000000e+05
    1.5009809285e-02    1.0120000000e+05
    1.5019970946e-02    1.0120000000e+05
    1.5029872768e-02    1.0120000000e+05
    1.5039774589e-02    1.0120000000e+05
    1.5049936250e-02    1.0120000000e+05
    1.5059838071e-02    1.0120000000e+05
    1.5069739893e-02    1.0120000000e+05
    1.5079902485e-02    1.0120000000e+05
    1.5089804307e-02    1.0120000000e+05
    1.5099966899e-02    1.0120000000e+05
    1.5109868720e-02    1.0120000000e+05
    1.5119770542e-02    1.0120000000e+05
    1.5129933134e-02    1.0120000000e+05
    1.5139835887e-02    1.0120000000e+05
    1.5149998479e-02    1.0120000000e+05
    1.5159900300e-02    1.0120000000e+05
    1.5169802122e-02    1.0120000000e+05
    1.5179964714e-02    1.0120000000e+05
    1.5189867467e-02    1.0120000000e+05
    1.5199769288e-02    1.0120000000e+05
    1.5209932812e-02    1.0120000000e+05
    1.5219834633e-02    1.0120000000e+05
    1.5229998156e-02    1.0120000000e+05
    1.5239900909e-02    1.0120000000e+05
    1.5249802731e-02    1.0120000000e+05
    1.5259966254e-02    1.0120000000e+05
    1.5269869007e-02    1.0120000000e+05
    1.5279771760e-02    1.0120000000e+05
    1.5289935283e-02    1.0120000000e+05
    1.5299838036e-02    1.0120000000e+05
    1.5309740789e-02    1.0120000000e+05
    1.5319904312e-02    1.0120000000e+05
    1.5329807997e-02    1.0120000000e+05
    1.5339971520e-02    1.0120000000e+05
    1.5349875204e-02    1.0120000000e+05
    1.5359777957e-02    1.0120000000e+05
    1.5369942412e-02    1.0120000000e+05
    1.5379845165e-02    1.0120000000e+05
    1.5389748849e-02    1.0120000000e+05
    1.5399913304e-02    1.0120000000e+05
    1.5409816988e-02    1.0120000000e+05
    1.5419981442e-02    1.0120000000e+05
    1.5429886058e-02    1.0120000000e+05
    1.5439789742e-02    1.0120000000e+05
    1.5449954197e-02    1.0120000000e+05
    1.5459857881e-02    1.0120000000e+05
    1.5469762497e-02    1.0120000000e+05
    1.5479926951e-02    1.0120000000e+05
    1.5489832498e-02    1.0120000000e+05
    1.5499997884e-02    1.0120000000e+05
    1.5509903431e-02    1.0120000000e+05
    1.5519808978e-02    1.0120000000e+05
    1.5529975295e-02    1.0120000000e+05
    1.5539880842e-02    1.0120000000e+05
    1.5549786389e-02    1.0120000000e+05
    1.5559952706e-02    1.0120000000e+05
    1.5569858253e-02    1.0120000000e+05
    1.5579763800e-02    1.0120000000e+05
    1.5589930117e-02    1.0120000000e+05
    1.5599836595e-02    1.0120000000e+05
    1.5609744005e-02    1.0120000000e+05
    1.5619911253e-02    1.0120000000e+05
    1.5629818663e-02    1.0120000000e+05
    1.5639984980e-02    1.0120000000e+05
    1.5649892390e-02    1.0120000000e+05
    1.5659799799e-02    1.0120000000e+05
    1.5669967979e-02    1.0120000000e+05
    1.5679873526e-02    1.0120000000e+05
    1.5689780936e-02    1.0120000000e+05
    1.5699949116e-02    1.0120000000e+05
    1.5709856525e-02    1.0120000000e+05
    1.5719765797e-02    1.0120000000e+05
    1.5729933977e-02    1.0120000000e+05
    1.5739841387e-02    1.0120000000e+05
    1.5749748796e-02    1.0120000000e+05
    1.5759918839e-02    1.0120000000e+05
    1.5769828111e-02    1.0120000000e+05
    1.5779998153e-02    1.0120000000e+05
    1.5789907426e-02    1.0120000000e+05
    1.5799816698e-02    1.0120000000e+05
    1.5809986740e-02    1.0120000000e+05
    1.5819896013e-02    1.0120000000e+05
    1.5829805285e-02    1.0120000000e+05
    1.5839975327e-02    1.0120000000e+05
    1.5849884599e-02    1.0120000000e+05
    1.5859793872e-02    1.0120000000e+05
    1.5869965777e-02    1.0120000000e+05
    1.5879875049e-02    1.0120000000e+05
    1.5889786184e-02    1.0120000000e+05
    1.5899958089e-02    1.0120000000e+05
    1.5909869224e-02    1.0120000000e+05
    1.5919780359e-02    1.0120000000e+05
    1.5929952264e-02    1.0120000000e+05
    1.5939863399e-02    1.0120000000e+05
    1.5949774534e-02    1.0120000000e+05
    1.5959946439e-02    1.0120000000e+05
    1.5969857574e-02    1.0120000000e+05
    1.5979770571e-02    1.0120000000e+05
    1.5989942476e-02    1.0120000000e+05
    1.5999855474e-02    1.0120000000e+05
    1.6009766608e-02    1.0120000000e+05
    1.6019940376e-02    1.0120000000e+05
    1.6029853374e-02    1.0120000000e+05
    1.6039764509e-02    1.0120000000e+05
    1.6049938276e-02    1.0120000000e+05
    1.6059851274e-02    1.0120000000e+05
    1.6069764271e-02    1.0120000000e+05
    1.6079939902e-02    1.0120000000e+05
    1.6089852899e-02    1.0120000000e+05
    1.6099765897e-02    1.0120000000e+05
    1.6109939665e-02    1.0120000000e+05
    1.6119854525e-02    1.0120000000e+05
    1.6129767522e-02    1.0120000000e+05
    1.6139943153e-02    1.0120000000e+05
    1.6149858013e-02    1.0120000000e+05
    1.6159772873e-02    1.0120000000e+05
    1.6169948503e-02    1.0120000000e+05
    1.6179863364e-02    1.0120000000e+05
    1.6189778224e-02    1.0120000000e+05
    1.6199953854e-02    1.0120000000e+05
    1.6209868714e-02    1.0120000000e+05
    1.6219783574e-02    1.0120000000e+05
    1.6229959205e-02    1.0120000000e+05
    1.6239875928e-02    1.0120000000e+05
    1.6249790788e-02    1.0120000000e+05
    1.6259968281e-02    1.0120000000e+05
    1.6269883141e-02    1.0120000000e+05
    1.6279799864e-02    1.0120000000e+05
    1.6289977357e-02    1.0120000000e+05
    1.6299894080e-02    1.0120000000e+05
    1.6309810802e-02    1.0120000000e+05
    1.6319988295e-02    1.0120000000e+05
    1.6329905018e-02    1.0120000000e+05
    1.6339821741e-02    1.0120000000e+05
    1.6349999234e-02    1.0120000000e+05
    1.6359915957e-02    1.0120000000e+05
    1.6369834542e-02    1.0120000000e+05
    1.6379751265e-02    1.0120000000e+05
    1.6389930621e-02    1.0120000000e+05
    1.6399847344e-02    1.0120000000e+05
    1.6409765929e-02    1.0120000000e+05
    1.6419943422e-02    1.0120000000e+05
    1.6429862007e-02    1.0120000000e+05
    1.6439780593e-02    1.0120000000e+05
    1.6449959949e-02    1.0120000000e+05
    1.6459878534e-02    1.0120000000e+05
    1.6469797119e-02    1.0120000000e+05
    1.6479976475e-02    1.0120000000e+05
    1.6489895061e-02    1.0120000000e+05
    1.6499813646e-02    1.0120000000e+05
    1.6509994864e-02    1.0120000000e+05
    1.6519913450e-02    1.0120000000e+05
    1.6529832035e-02    1.0120000000e+05
    1.6539752483e-02    1.0120000000e+05
    1.6549931839e-02    1.0120000000e+05
    1.6559852287e-02    1.0120000000e+05
    1.6569770873e-02    1.0120000000e+05
    1.6579952091e-02    1.0120000000e+05
    1.6589872539e-02    1.0120000000e+05
    1.6599792987e-02    1.0120000000e+05
    1.6609974205e-02    1.0120000000e+05
    1.6619892791e-02    1.0120000000e+05
    1.6629813239e-02    1.0120000000e+05
    1.6639996320e-02    1.0120000000e+05
    1.6649916768e-02    1.0120000000e+05
    1.6659837216e-02    1.0120000000e+05
    1.6669757664e-02    1.0120000000e+05
    1.6679938883e-02    1.0120000000e+05
    1.6689861193e-02    1.0120000000e+05
    1.6699781641e-02    1.0120000000e+05
    1.6709964722e-02    1.0120000000e+05
    1.6719885170e-02    1.0120000000e+05
    1.6729807481e-02    1.0120000000e+05
    1.6739988700e-02    1.0120000000e+05
    1.6749911010e-02    1.0120000000e+05
    1.6759833321e-02    1.0120000000e+05
    1.6769753769e-02    1.0120000000e+05
    1.6779936850e-02    1.0120000000e+05
    1.6789859161e-02    1.0120000000e+05
    1.6799781471e-02    1.0120000000e+05
    1.6809964553e-02    1.0120000000e+05
    1.6819886863e-02    1.0120000000e+05
    1.6829809174e-02    1.0120000000e+05
    1.6839992255e-02    1.0120000000e+05
    1.6849914566e-02    1.0120000000e+05
    1.6859838739e-02    1.0120000000e+05
    1.6869761050e-02    1.0120000000e+05
    1.6879944131e-02    1.0120000000e+05
    1.6889868304e-02    1.0120000000e+05
    1.6899790615e-02    1.0120000000e+05
    1.6909975559e-02    1.0120000000e+05
    1.6919897869e-02    1.0120000000e+05
    1.6929822043e-02    1.0120000000e+05
    1.6939744353e-02    1.0120000000e+05
    1.6949929297e-02    1.0120000000e+05
    1.6959853470e-02    1.0120000000e+05
    1.6969777644e-02    1.0120000000e+05
    1.6979962587e-02    1.0120000000e+05
    1.6989884898e-02    1.0120000000e+05
    1.6999809071e-02    1.0120000000e+05
    1.7009994015e-02    1.0120000000e+05
    1.7019918188e-02    1.0120000000e+05
    1.7029842362e-02    1.0120000000e+05
    1.7039766535e-02    1.0120000000e+05
    1.7049953341e-02    1.0120000000e+05
    1.7059877515e-02    1.0120000000e+05
    1.7069801688e-02    1.0120000000e+05
    1.7079986632e-02    1.0120000000e+05
    1.7089912668e-02    1.0120000000e+05
    1.7099836841e-02    1.0120000000e+05
    1.7109761015e-02    1.0120000000e+05
    1.7119947821e-02    1.0120000000e+05
    1.7129871994e-02    1.0120000000e+05
    1.7139798030e-02    1.0120000000e+05
    1.7149982974e-02    1.0120000000e+05
    1.7159909010e-02    1.0120000000e+05
    1.7169833183e-02    1.0120000000e+05
    1.7179759219e-02    1.0120000000e+05
    1.7189946026e-02    1.0120000000e+05
    1.7199872062e-02    1.0120000000e+05
    1.7209796235e-02    1.0120000000e+05
    1.7219983041e-02    1.0120000000e+05
    1.7229909077e-02    1.0120000000e+05
    1.7239835113e-02    1.0120000000e+05
    1.7249761149e-02    1.0120000000e+05
    1.7259947956e-02    1.0120000000e+05
    1.7269873992e-02    1.0120000000e+05
    1.7279800028e-02    1.0120000000e+05
    1.7289986834e-02    1.0120000000e+05
    1.7299912870e-02    1.0120000000e+05
    1.7309838906e-02    1.0120000000e+05
    1.7319764942e-02    1.0120000000e+05
    1.7329951748e-02    1.0120000000e+05
    1.7339877784e-02    1.0120000000e+05
    1.7349803820e-02    1.0120000000e+05
    1.7359992489e-02    1.0120000000e+05
    1.7369918525e-02    1.0120000000e+05
    1.7379844561e-02    1.0120000000e+05
    1.7389772460e-02    1.0120000000e+05
    1.7399959266e-02    1.0120000000e+05
    1.7409887165e-02    1.0120000000e+05
    1.7419813201e-02    1.0120000000e+05
    1.7429739237e-02    1.0120000000e+05
    1.7439927906e-02    1.0120000000e+05
    1.7449853942e-02    1.0120000000e+05
    1.7459781840e-02    1.0120000000e+05
    1.7469968647e-02    1.0120000000e+05
    1.7479896545e-02    1.0120000000e+05
    1.7489822581e-02    1.0120000000e+05
    1.7499750480e-02    1.0120000000e+05
    1.7509937286e-02    1.0120000000e+05
    1.7519865185e-02    1.0120000000e+05
    1.7529791221e-02    1.0120000000e+05
    1.7539979890e-02    1.0120000000e+05
    1.7549907789e-02    1.0120000000e+05
    1.7559833825e-02    1.0120000000e+05
    1.7569761723e-02    1.0120000000e+05
    1.7579950392e-02    1.0120000000e+05
    1.7589876428e-02    1.0120000000e+05
    1.7599804327e-02    1.0120000000e+05
    1.7609992996e-02    1.0120000000e+05
    1.7619920895e-02    1.0120000000e+05
    1.7629846931e-02    1.0120000000e+05
    1.7639774829e-02    1.0120000000e+05
    1.7649963498e-02    1.0120000000e+05
    1.7659891397e-02    1.0120000000e+05
    1.7669817433e-02    1.0120000000e+05
    1.7679745331e-02    1.0120000000e+05
    1.7689934000e-02    1.0120000000e+05
    1.7699861899e-02    1.0120000000e+05
    1.7709787935e-02    1.0120000000e+05
    1.7719978467e-02    1.0120000000e+05
    1.7729904503e-02    1.0120000000e+05
    1.7739832401e-02    1.0120000000e+05
    1.7749760300e-02    1.0120000000e+05
    1.7759948969e-02    1.0120000000e+05
    1.7769876868e-02    1.0120000000e+05
    1.7779802904e-02    1.0120000000e+05
    1.7789991572e-02    1.0120000000e+05
    1.7799919471e-02    1.0120000000e+05
    1.7809847370e-02    1.0120000000e+05
    1.7819775268e-02    1.0120000000e+05
    1.7829963937e-02    1.0120000000e+05
    1.7839889973e-02    1.0120000000e+05
    1.7849817872e-02    1.0120000000e+05
    1.7859745771e-02    1.0120000000e+05
    1.7869934440e-02    1.0120000000e+05
    1.7879862338e-02    1.0120000000e+05
    1.7889788374e-02    1.0120000000e+05
    1.7899977043e-02    1.0120000000e+05
    1.7909904942e-02    1.0120000000e+05
    1.7919832841e-02    1.0120000000e+05
    1.7929760739e-02    1.0120000000e+05
    1.7939949408e-02    1.0120000000e+05
    1.7949877307e-02    1.0120000000e+05
    1.7959803343e-02    1.0120000000e+05
    1.7969992012e-02    1.0120000000e+05
    1.7979919910e-02    1.0120000000e+05
    1.7989847809e-02    1.0120000000e+05
    1.7999775708e-02    1.0120000000e+05
    1.8009964377e-02    1.0120000000e+05
    1.8019890413e-02    1.0120000000e+05
    1.8029818311e-02    1.0120000000e+05
    1.8039746210e-02    1.0120000000e+05
    1.8049934879e-02    1.0120000000e+05
    1.8059862778e-02    1.0120000000e+05
    1.8069788814e-02    1.0120000000e+05
    1.8079977483e-02    1.0120000000e+05
    1.8089905381e-02    1.0120000000e+05
    1.8099833280e-02    1.0120000000e+05
    1.8109759316e-02    1.0120000000e+05
    1.8119947985e-02    1.0120000000e+05
    1.8129875883e-02    1.0120000000e+05
    1.8139803782e-02    1.0120000000e+05
    1.8149992451e-02    1.0120000000e+05
    1.8159918487e-02    1.0120000000e+05
    1.8169846386e-02    1.0120000000e+05
    1.8179774284e-02    1.0120000000e+05
    1.8189961091e-02    1.0120000000e+05
    1.8199888989e-02    1.0120000000e+05
    1.8209816888e-02    1.0120000000e+05
    1.8219742924e-02    1.0120000000e+05
    1.8229931593e-02    1.0120000000e+05
    1.8239859492e-02    1.0120000000e+05
    1.8249787390e-02    1.0120000000e+05
    1.8259976059e-02    1.0120000000e+05
    1.8269902095e-02    1.0120000000e+05
    1.8279829994e-02    1.0120000000e+05
    1.8289757892e-02    1.0120000000e+05
    1.8299946561e-02    1.0120000000e+05
    1.8309874460e-02    1.0120000000e+05
    1.8319802359e-02    1.0120000000e+05
    1.8329991028e-02    1.0120000000e+05
    1.8339918926e-02    1.0120000000e+05
    1.8349846825e-02    1.0120000000e+05
    1.8359774724e-02    1.0120000000e+05
    1.8369965255e-02    1.0120000000e+05
    1.8379893154e-02    1.0120000000e+05
    1.8389822915e-02    1.0120000000e+05
    1.8399750814e-02    1.0120000000e+05
    1.8409941345e-02    1.0120000000e+05
    1.8419869244e-02    1.0120000000e+05
    1.8429799005e-02    1.0120000000e+05
    1.8439989537e-02    1.0120000000e+05
    1.8449919298e-02    1.0120000000e+05
    1.8459849060e-02    1.0120000000e+05
    1.8469776958e-02    1.0120000000e+05
    1.8479969352e-02    1.0120000000e+05
    1.8489899114e-02    1.0120000000e+05
    1.8499828875e-02    1.0120000000e+05
    1.8509758636e-02    1.0120000000e+05
    1.8519951031e-02    1.0120000000e+05
    1.8529880792e-02    1.0120000000e+05
    1.8539812416e-02    1.0120000000e+05
    1.8549744040e-02    1.0120000000e+05
    1.8559936434e-02    1.0120000000e+05
    1.8569868058e-02    1.0120000000e+05
    1.8579799682e-02    1.0120000000e+05
    1.8589992076e-02    1.0120000000e+05
    1.8599923700e-02    1.0120000000e+05
    1.8609855324e-02    1.0120000000e+05
    1.8619788811e-02    1.0120000000e+05
    1.8629983068e-02    1.0120000000e+05
    1.8639914691e-02    1.0120000000e+05
    1.8649848178e-02    1.0120000000e+05
    1.8659781665e-02    1.0120000000e+05
    1.8669975922e-02    1.0120000000e+05
    1.8679909408e-02    1.0120000000e+05
    1.8689842895e-02    1.0120000000e+05
    1.8699778244e-02    1.0120000000e+05
    1.8709974363e-02    1.0120000000e+05
    1.8719911575e-02    1.0120000000e+05
    1.8729846925e-02    1.0120000000e+05
    1.8739782274e-02    1.0120000000e+05
    1.8749980256e-02    1.0120000000e+05
    1.8759915605e-02    1.0120000000e+05
    1.8769852817e-02    1.0120000000e+05
    1.8779788166e-02    1.0120000000e+05
    1.8789984286e-02    1.0120000000e+05
    1.8799921498e-02    1.0120000000e+05
    1.8809856847e-02    1.0120000000e+05
    1.8819792196e-02    1.0120000000e+05
    1.8829990178e-02    1.0120000000e+05
    1.8839927390e-02    1.0120000000e+05
    1.8849862739e-02    1.0120000000e+05
    1.8859799951e-02    1.0120000000e+05
    1.8869997934e-02    1.0120000000e+05
    1.8879935145e-02    1.0120000000e+05
    1.8889872357e-02    1.0120000000e+05
    1.8899809569e-02    1.0120000000e+05
    1.8909746781e-02    1.0120000000e+05
    1.8919946626e-02    1.0120000000e+05
    1.8929883838e-02    1.0120000000e+05
    1.8939822912e-02    1.0120000000e+05
    1.8949761987e-02    1.0120000000e+05
    1.8959961832e-02    1.0120000000e+05
    1.8969902769e-02    1.0120000000e+05
    1.8979843706e-02    1.0120000000e+05
    1.8989786506e-02    1.0120000000e+05
    1.8999990076e-02    1.0120000000e+05
    1.9009932876e-02    1.0120000000e+05
    1.9019879401e-02    1.0120000000e+05
    1.9029824063e-02    1.0120000000e+05
    1.9039770588e-02    1.0120000000e+05
    1.9049979746e-02    1.0120000000e+05
    1.9059928134e-02    1.0120000000e+05
    1.9069874659e-02    1.0120000000e+05
    1.9079824910e-02    1.0120000000e+05
    1.9089771435e-02    1.0120000000e+05
    1.9099982455e-02    1.0120000000e+05
    1.9109932706e-02    1.0120000000e+05
    1.9119884819e-02    1.0120000000e+05
    1.9129836932e-02    1.0120000000e+05
    1.9139789045e-02    1.0120000000e+05
    1.9149741158e-02    1.0120000000e+05
    1.9159959629e-02    1.0120000000e+05
    1.9169917330e-02    1.0120000000e+05
    1.9179875031e-02    1.0120000000e+05
    1.9189832732e-02    1.0120000000e+05
    1.9199790433e-02    1.0120000000e+05
    1.9209751859e-02    1.0120000000e+05
    1.9219974056e-02    1.0120000000e+05
    1.9229933619e-02    1.0120000000e+05
    1.9239896908e-02    1.0120000000e+05
    1.9249858335e-02    1.0120000000e+05
    1.9259825349e-02    1.0120000000e+05
    1.9269792363e-02    1.0120000000e+05
    1.9279757515e-02    1.0120000000e+05
    1.9289989024e-02    1.0120000000e+05
    1.9299957901e-02    1.0120000000e+05
    1.9309930503e-02    1.0120000000e+05
    1.9319903105e-02    1.0120000000e+05
    1.9329871982e-02    1.0120000000e+05
    1.9339846447e-02    1.0120000000e+05
    1.9349822775e-02    1.0120000000e+05
    1.9359800965e-02    1.0120000000e+05
    1.9369781017e-02    1.0120000000e+05
    1.9379759207e-02    1.0120000000e+05
    1.9389737397e-02    1.0120000000e+05
    1.9399985671e-02    1.0120000000e+05
    1.9409969449e-02    1.0120000000e+05
    1.9419956952e-02    1.0120000000e+05
    1.9429942593e-02    1.0120000000e+05
    1.9439928234e-02    1.0120000000e+05
[...]
    1.1513976008e-01    1.0124485156e+05
    1.1514976621e-01    1.0124485156e+05
    1.1515977234e-01    1.0124484375e+05
    1.1516977847e-01    1.0124483594e+05
    1.1517978460e-01    1.0124482031e+05
    1.1518979073e-01    1.0124481250e+05
    1.1519979686e-01    1.0124480469e+05
    1.1520980299e-01    1.0124478906e+05
    1.1521980911e-01    1.0124478125e+05
    1.1522980779e-01    1.0124477344e+05
    1.1523981392e-01    1.0124477344e+05
    1.1524982005e-01    1.0124475000e+05
    1.1525982618e-01    1.0124474219e+05
    1.1526983231e-01    1.0124472656e+05
    1.1527983844e-01    1.0124471094e+05
    1.1528984457e-01    1.0124471094e+05
    1.1529985070e-01    1.0124468750e+05
    1.1530985683e-01    1.0124467969e+05
    1.1531986296e-01    1.0124466406e+05
    1.1532986909e-01    1.0124464844e+05
    1.1533987522e-01    1.0124464844e+05
    1.1534988135e-01    1.0124462500e+05
    1.1535988748e-01    1.0124460156e+05
    1.1536989361e-01    1.0124459375e+05
    1.1537989974e-01    1.0124458594e+05
    1.1538990587e-01    1.0124456250e+05
    1.1539991200e-01    1.0124453906e+05
    1.1540991813e-01    1.0124453125e+05
    1.1541991681e-01    1.0124452344e+05
    1.1542992294e-01    1.0124449219e+05
    1.1543992907e-01    1.0124447656e+05
    1.1544993520e-01    1.0124446094e+05
    1.1545994133e-01    1.0124443750e+05
    1.1546994746e-01    1.0124441406e+05
    1.1547995359e-01    1.0124439844e+05
    1.1548995972e-01    1.0124438281e+05
    1.1549996585e-01    1.0124436719e+05
    1.1550997198e-01    1.0124434375e+05
    1.1551997811e-01    1.0124433594e+05
    1.1552998424e-01    1.0124431250e+05
    1.1553999037e-01    1.0124428906e+05
    1.1554999650e-01    1.0124427344e+05
    1.1555969715e-01    1.0124425000e+05
    1.1556970328e-01    1.0124422656e+05
    1.1557970941e-01    1.0124421094e+05
    1.1558971554e-01    1.0124417969e+05
    1.1559972167e-01    1.0124415625e+05
    1.1560972780e-01    1.0124413281e+05
    1.1561973393e-01    1.0124410156e+05
    1.1562974006e-01    1.0124408594e+05
    1.1563974619e-01    1.0124406250e+05
    1.1564975232e-01    1.0124403906e+05
    1.1565975845e-01    1.0124402344e+05
    1.1566975713e-01    1.0124400000e+05
    1.1567976326e-01    1.0124397656e+05
    1.1568976939e-01    1.0124396094e+05
    1.1569977552e-01    1.0124392969e+05
    1.1570978165e-01    1.0124390625e+05
    1.1571978778e-01    1.0124388281e+05
    1.1572979391e-01    1.0124385156e+05
    1.1573980004e-01    1.0124383594e+05
    1.1574980617e-01    1.0124380469e+05
    1.1575981230e-01    1.0124378125e+05
    1.1576981843e-01    1.0124375781e+05
    1.1577982455e-01    1.0124372656e+05
    1.1578983068e-01    1.0124371094e+05
    1.1579983681e-01    1.0124368750e+05
    1.1580984294e-01    1.0124366406e+05
    1.1581984907e-01    1.0124364844e+05
    1.1582985520e-01    1.0124361719e+05
    1.1583986133e-01    1.0124358594e+05
    1.1584986746e-01    1.0124356250e+05
    1.1585986614e-01    1.0124353906e+05
    1.1586987227e-01    1.0124352344e+05
    1.1587987840e-01    1.0124349219e+05
    1.1588988453e-01    1.0124346875e+05
    1.1589989066e-01    1.0124344531e+05
    1.1590989679e-01    1.0124341406e+05
    1.1591990292e-01    1.0124339844e+05
    1.1592990905e-01    1.0124337500e+05
    1.1593991518e-01    1.0124335156e+05
    1.1594992131e-01    1.0124333594e+05
    1.1595992744e-01    1.0124331250e+05
    1.1596993357e-01    1.0124328906e+05
    1.1597993970e-01    1.0124327344e+05
    1.1598994583e-01    1.0124324219e+05
    1.1599995196e-01    1.0124321875e+05
    1.1600995809e-01    1.0124319531e+05
    1.1601996422e-01    1.0124316406e+05
    1.1602997035e-01    1.0124314844e+05
    1.1603997648e-01    1.0124313281e+05
    1.1604998261e-01    1.0124310156e+05
    1.1605998129e-01    1.0124308594e+05
    1.1606998742e-01    1.0124307031e+05
    1.1607999355e-01    1.0124303906e+05
    1.1608970165e-01    1.0124303125e+05
    1.1609970778e-01    1.0124302344e+05
    1.1610971391e-01    1.0124299219e+05
    1.1611971259e-01    1.0124297656e+05
    1.1612971872e-01    1.0124296094e+05
    1.1613972485e-01    1.0124293750e+05
    1.1614973098e-01    1.0124291406e+05
    1.1615973711e-01    1.0124289844e+05
    1.1616974324e-01    1.0124288281e+05
    1.1617974937e-01    1.0124285156e+05
    1.1618975550e-01    1.0124284375e+05
    1.1619976163e-01    1.0124283594e+05
    1.1620976776e-01    1.0124280469e+05
    1.1621977389e-01    1.0124278906e+05
    1.1622978002e-01    1.0124277344e+05
    1.1623978615e-01    1.0124275781e+05
    1.1624979228e-01    1.0124274219e+05
    1.1625979841e-01    1.0124272656e+05
    1.1626980454e-01    1.0124271094e+05
    1.1627981067e-01    1.0124268750e+05
    1.1628981680e-01    1.0124266406e+05
    1.1629982293e-01    1.0124265625e+05
    1.1630982906e-01    1.0124264844e+05
    1.1631982774e-01    1.0124262500e+05
    1.1632983387e-01    1.0124260156e+05
    1.1633983999e-01    1.0124259375e+05
    1.1634984612e-01    1.0124258594e+05
    1.1635985225e-01    1.0124256250e+05
    1.1636985838e-01    1.0124253906e+05
    1.1637986451e-01    1.0124253125e+05
    1.1638987064e-01    1.0124252344e+05
    1.1639987677e-01    1.0124250000e+05
    1.1640988290e-01    1.0124247656e+05
    1.1641988903e-01    1.0124246875e+05
    1.1642989516e-01    1.0124246094e+05
    1.1643990129e-01    1.0124243750e+05
    1.1644990742e-01    1.0124241406e+05
    1.1645991355e-01    1.0124240625e+05
    1.1646991968e-01    1.0124239844e+05
    1.1647992581e-01    1.0124237500e+05
    1.1648993194e-01    1.0124235156e+05
    1.1649993807e-01    1.0124235156e+05
    1.1650994420e-01    1.0124233594e+05
    1.1651994288e-01    1.0124232031e+05
    1.1652994901e-01    1.0124230469e+05
    1.1653995514e-01    1.0124228906e+05
    1.1654996127e-01    1.0124227344e+05
    1.1655996740e-01    1.0124225781e+05
    1.1656997353e-01    1.0124224219e+05
    1.1657997966e-01    1.0124222656e+05
    1.1658998579e-01    1.0124221094e+05
    1.1659999192e-01    1.0124219531e+05
    1.1660999805e-01    1.0124217969e+05
    1.1661969870e-01    1.0124216406e+05
    1.1662970483e-01    1.0124214844e+05
    1.1663971096e-01    1.0124213281e+05
    1.1664971709e-01    1.0124211719e+05
    1.1665972322e-01    1.0124210156e+05
    1.1666972935e-01    1.0124208594e+05
    1.1667973548e-01    1.0124208594e+05
    1.1668974161e-01    1.0124206250e+05
    1.1669974774e-01    1.0124203906e+05
    1.1670975387e-01    1.0124203125e+05
    1.1671976000e-01    1.0124202344e+05
    1.1672976613e-01    1.0124200000e+05
    1.1673977226e-01    1.0124197656e+05
    1.1674977839e-01    1.0124196094e+05
    1.1675978452e-01    1.0124194531e+05
    1.1676979065e-01    1.0124192969e+05
    1.1677978933e-01    1.0124191406e+05
    1.1678979546e-01    1.0124189844e+05
    1.1679980159e-01    1.0124188281e+05
    1.1680980772e-01    1.0124186719e+05
    1.1681981385e-01    1.0124185156e+05
    1.1682981998e-01    1.0124183594e+05
    1.1683982611e-01    1.0124181250e+05
    1.1684983224e-01    1.0124178906e+05
    1.1685983837e-01    1.0124178125e+05
    1.1686984450e-01    1.0124177344e+05
    1.1687985063e-01    1.0124175000e+05
    1.1688985676e-01    1.0124172656e+05
    1.1689986289e-01    1.0124171094e+05
    1.1690986902e-01    1.0124169531e+05
    1.1691987514e-01    1.0124167969e+05
    1.1692988127e-01    1.0124166406e+05
    1.1693988740e-01    1.0124164844e+05
    1.1694989353e-01    1.0124162500e+05
    1.1695989966e-01    1.0124160156e+05
    1.1696990579e-01    1.0124159375e+05
    1.1697990447e-01    1.0124158594e+05
    1.1698991060e-01    1.0124155469e+05
    1.1699991673e-01    1.0124153906e+05
    1.1700992286e-01    1.0124152344e+05
    1.1701992899e-01    1.0124150781e+05
    1.1702993512e-01    1.0124147656e+05
    1.1703994125e-01    1.0124146875e+05
    1.1704994738e-01    1.0124146094e+05
    1.1705995351e-01    1.0124142969e+05
    1.1706995964e-01    1.0124141406e+05
    1.1707996577e-01    1.0124139844e+05
    1.1708997190e-01    1.0124137500e+05
    1.1709997803e-01    1.0124135156e+05
    1.1710998416e-01    1.0124134375e+05
    1.1711999029e-01    1.0124133594e+05
    1.1712999642e-01    1.0124130469e+05
    1.1713969707e-01    1.0124128906e+05
    1.1714970320e-01    1.0124127344e+05
    1.1715970933e-01    1.0124125000e+05
    1.1716971546e-01    1.0124122656e+05
    1.1717972159e-01    1.0124121875e+05
    1.1718972772e-01    1.0124119531e+05
    1.1719973385e-01    1.0124117969e+05
    1.1720973998e-01    1.0124116406e+05
    1.1721974611e-01    1.0124114844e+05
    1.1722975224e-01    1.0124112500e+05
    1.1723975092e-01    1.0124110156e+05
    1.1724975705e-01    1.0124108594e+05
    1.1725976318e-01    1.0124107031e+05
    1.1726976931e-01    1.0124105469e+05
    1.1727977544e-01    1.0124103125e+05
    1.1728978157e-01    1.0124102344e+05
    1.1729978770e-01    1.0124100000e+05
    1.1730979383e-01    1.0124097656e+05
    1.1731979996e-01    1.0124096094e+05
    1.1732980609e-01    1.0124094531e+05
    1.1733981222e-01    1.0124091406e+05
    1.1734981835e-01    1.0124090625e+05
    1.1735982448e-01    1.0124089844e+05
    1.1736983061e-01    1.0124086719e+05
    1.1737983674e-01    1.0124085156e+05
    1.1738984287e-01    1.0124083594e+05
    1.1739984900e-01    1.0124081250e+05
    1.1740985513e-01    1.0124078906e+05
    1.1741986126e-01    1.0124077344e+05
    1.1742986739e-01    1.0124075781e+05
    1.1743987352e-01    1.0124074219e+05
    1.1744987220e-01    1.0124071875e+05
    1.1745987833e-01    1.0124071094e+05
    1.1746988446e-01    1.0124068750e+05
    1.1747989058e-01    1.0124066406e+05
    1.1748989671e-01    1.0124064844e+05
    1.1749990284e-01    1.0124063281e+05
    1.1750990897e-01    1.0124060156e+05
    1.1751991510e-01    1.0124059375e+05
    1.1752992123e-01    1.0124058594e+05
    1.1753992736e-01    1.0124056250e+05
    1.1754993349e-01    1.0124053906e+05
    1.1755993962e-01    1.0124052344e+05
    1.1756994575e-01    1.0124050781e+05
    1.1757995188e-01    1.0124047656e+05
    1.1758995801e-01    1.0124046875e+05
    1.1759996414e-01    1.0124046094e+05
    1.1760997027e-01    1.0124043750e+05
    1.1761997640e-01    1.0124041406e+05
    1.1762998253e-01    1.0124039844e+05
    1.1763998866e-01    1.0124038281e+05
    1.1764998734e-01    1.0124036719e+05
    1.1765999347e-01    1.0124034375e+05
    1.1766970158e-01    1.0124033594e+05
    1.1767970771e-01    1.0124031250e+05
    1.1768971384e-01    1.0124028906e+05
    1.1769971997e-01    1.0124028125e+05
    1.1770971864e-01    1.0124025781e+05
    1.1771972477e-01    1.0124024219e+05
    1.1772973090e-01    1.0124022656e+05
    1.1773973703e-01    1.0124021094e+05
    1.1774974316e-01    1.0124019531e+05
    1.1775974929e-01    1.0124016406e+05
    1.1776975542e-01    1.0124015625e+05
    1.1777976155e-01    1.0124014844e+05
    1.1778976768e-01    1.0124012500e+05
    1.1779977381e-01    1.0124010156e+05
    1.1780977994e-01    1.0124009375e+05
    1.1781978607e-01    1.0124007031e+05
    1.1782979220e-01    1.0124005469e+05
    1.1783979833e-01    1.0124003906e+05
    1.1784980446e-01    1.0124002344e+05
    1.1785981059e-01    1.0124000781e+05
    1.1786981672e-01    1.0123999219e+05
    1.1787982285e-01    1.0123997656e+05
    1.1788982898e-01    1.0123996094e+05
    1.1789983511e-01    1.0123993750e+05
    1.1790983379e-01    1.0123991406e+05
    1.1791983992e-01    1.0123990625e+05
    1.1792984605e-01    1.0123989844e+05
    1.1793985218e-01    1.0123987500e+05
    1.1794985831e-01    1.0123985156e+05
    1.1795986444e-01    1.0123984375e+05
    1.1796987057e-01    1.0123983594e+05
    1.1797987670e-01    1.0123981250e+05
    1.1798988283e-01    1.0123978906e+05
    1.1799988896e-01    1.0123978125e+05
    1.1800989509e-01    1.0123977344e+05
    1.1801990122e-01    1.0123975000e+05
    1.1802990735e-01    1.0123972656e+05
    1.1803991348e-01    1.0123971875e+05
    1.1804991961e-01    1.0123971094e+05
    1.1805992573e-01    1.0123967969e+05
    1.1806993186e-01    1.0123966406e+05
    1.1807993799e-01    1.0123964844e+05
    1.1808994412e-01    1.0123963281e+05
    1.1809995025e-01    1.0123961719e+05
    1.1810994893e-01    1.0123960156e+05
    1.1811995506e-01    1.0123958594e+05
    1.1812996119e-01    1.0123957031e+05
    1.1813996732e-01    1.0123955469e+05
    1.1814997345e-01    1.0123953906e+05
    1.1815997958e-01    1.0123953125e+05
    1.1816998571e-01    1.0123952344e+05
    1.1817999184e-01    1.0123950000e+05
    1.1818999797e-01    1.0123947656e+05
    1.1819969863e-01    1.0123946875e+05
    1.1820970476e-01    1.0123946094e+05
    1.1821971089e-01    1.0123943750e+05
    1.1822971702e-01    1.0123941406e+05
    1.1823972315e-01    1.0123940625e+05
    1.1824972928e-01    1.0123939844e+05
    1.1825973541e-01    1.0123937500e+05
    1.1826974154e-01    1.0123935156e+05
    1.1827974766e-01    1.0123934375e+05
    1.1828975379e-01    1.0123933594e+05
    1.1829975992e-01    1.0123931250e+05
    1.1830976605e-01    1.0123928906e+05
    1.1831977218e-01    1.0123928125e+05
    1.1832977831e-01    1.0123927344e+05
    1.1833978444e-01    1.0123925000e+05
    1.1834979057e-01    1.0123922656e+05
    1.1835979670e-01    1.0123921875e+05
    1.1836979538e-01    1.0123921094e+05
    1.1837980151e-01    1.0123919531e+05
    1.1838980764e-01    1.0123917969e+05
    1.1839981377e-01    1.0123916406e+05
    1.1840981990e-01    1.0123914844e+05
    1.1841982603e-01    1.0123913281e+05
    1.1842983216e-01    1.0123911719e+05
    1.1843983829e-01    1.0123910156e+05
    1.1844984442e-01    1.0123908594e+05
    1.1845985055e-01    1.0123907031e+05
    1.1846985668e-01    1.0123905469e+05
    1.1847986281e-01    1.0123903906e+05
    1.1848986894e-01    1.0123902344e+05
    1.1849987507e-01    1.0123900781e+05
    1.1850988120e-01    1.0123899219e+05
    1.1851988733e-01    1.0123897656e+05
    1.1852989346e-01    1.0123896094e+05
    1.1853989959e-01    1.0123896094e+05
    1.1854990572e-01    1.0123893750e+05
    1.1855991185e-01    1.0123891406e+05
    1.1856991053e-01    1.0123890625e+05
    1.1857991666e-01    1.0123889844e+05
    1.1858992279e-01    1.0123887500e+05
    1.1859992892e-01    1.0123885156e+05
    1.1860993505e-01    1.0123884375e+05
    1.1861994117e-01    1.0123883594e+05
    1.1862994730e-01    1.0123881250e+05
    1.1863995343e-01    1.0123878906e+05
    1.1864995956e-01    1.0123878125e+05
    1.1865996569e-01    1.0123877344e+05
    1.1866997182e-01    1.0123875781e+05
    1.1867997795e-01    1.0123874219e+05
    1.1868998408e-01    1.0123872656e+05
    1.1869999021e-01    1.0123871094e+05
    1.1870999634e-01    1.0123869531e+05
    1.1871969700e-01    1.0123867969e+05
    1.1872970313e-01    1.0123866406e+05
    1.1873970926e-01    1.0123864844e+05
    1.1874971539e-01    1.0123863281e+05
    1.1875972152e-01    1.0123861719e+05
    1.1876972765e-01    1.0123860156e+05
    1.1877973378e-01    1.0123859375e+05
    1.1878973991e-01    1.0123858594e+05
    1.1879974604e-01    1.0123856250e+05
    1.1880975217e-01    1.0123853906e+05
    1.1881975830e-01    1.0123853125e+05
    1.1882976443e-01    1.0123852344e+05
    1.1883976310e-01    1.0123850000e+05
    1.1884976923e-01    1.0123847656e+05
    1.1885977536e-01    1.0123846875e+05
    1.1886978149e-01    1.0123846094e+05
    1.1887978762e-01    1.0123844531e+05
    1.1888979375e-01    1.0123842969e+05
    1.1889979988e-01    1.0123841406e+05
    1.1890980601e-01    1.0123839844e+05
    1.1891981214e-01    1.0123838281e+05
    1.1892981827e-01    1.0123836719e+05
    1.1893982440e-01    1.0123835156e+05
    1.1894983053e-01    1.0123833594e+05
    1.1895983666e-01    1.0123833594e+05
    1.1896984279e-01    1.0123831250e+05
    1.1897984892e-01    1.0123828906e+05
    1.1898985505e-01    1.0123828125e+05
    1.1899986118e-01    1.0123827344e+05
    1.1900986731e-01    1.0123825781e+05
    1.1901987344e-01    1.0123824219e+05
    1.1902987957e-01    1.0123822656e+05
    1.1903987825e-01    1.0123821094e+05
    1.1904988438e-01    1.0123821094e+05
    1.1905989051e-01    1.0123818750e+05
    1.1906989664e-01    1.0123816406e+05
    1.1907990277e-01    1.0123815625e+05
    1.1908990890e-01    1.0123814844e+05
    1.1909991503e-01    1.0123813281e+05
    1.1910992116e-01    1.0123811719e+05
    1.1911992729e-01    1.0123810156e+05
    1.1912993342e-01    1.0123809375e+05
    1.1913993955e-01    1.0123808594e+05
    1.1914994568e-01    1.0123806250e+05
    1.1915995181e-01    1.0123803906e+05
    1.1916995794e-01    1.0123803906e+05
    1.1917996407e-01    1.0123802344e+05
    1.1918997020e-01    1.0123800781e+05
    1.1919997633e-01    1.0123799219e+05
    1.1920998245e-01    1.0123797656e+05
    1.1921998858e-01    1.0123796094e+05
    1.1922999471e-01    1.0123794531e+05
    1.1924000084e-01    1.0123793750e+05
    1.1924970150e-01    1.0123791406e+05
    1.1925970763e-01    1.0123790625e+05
    1.1926971376e-01    1.0123789844e+05
    1.1927971989e-01    1.0123788281e+05
    1.1928972602e-01    1.0123786719e+05
    1.1929973215e-01    1.0123785156e+05
    1.1930973828e-01    1.0123784375e+05
    1.1931973696e-01    1.0123783594e+05
    1.1932974309e-01    1.0123781250e+05
    1.1933974922e-01    1.0123778906e+05
    1.1934975535e-01    1.0123778125e+05
    1.1935976148e-01    1.0123777344e+05
    1.1936976761e-01    1.0123775781e+05
    1.1937977374e-01    1.0123774219e+05
    1.1938977987e-01    1.0123772656e+05
    1.1939978600e-01    1.0123771094e+05
    1.1940979213e-01    1.0123771094e+05
    1.1941979825e-01    1.0123768750e+05
    1.1942980438e-01    1.0123766406e+05
    1.1943981051e-01    1.0123765625e+05
    1.1944981664e-01    1.0123764844e+05
    1.1945982277e-01    1.0123763281e+05
    1.1946982890e-01    1.0123761719e+05
    1.1947983503e-01    1.0123760156e+05
    1.1948984116e-01    1.0123759375e+05
    1.1949984729e-01    1.0123758594e+05
    1.1950985342e-01    1.0123756250e+05
    1.1951985955e-01    1.0123755469e+05
    1.1952985823e-01    1.0123753906e+05
    1.1953986436e-01    1.0123752344e+05
    1.1954987049e-01    1.0123750781e+05
    1.1955987662e-01    1.0123749219e+05
    1.1956988275e-01    1.0123747656e+05
    1.1957988888e-01    1.0123746875e+05
    1.1958989501e-01    1.0123746094e+05
    1.1959990114e-01    1.0123743750e+05
    1.1960990727e-01    1.0123742969e+05
    1.1961991340e-01    1.0123741406e+05
    1.1962991953e-01    1.0123739844e+05
    1.1963992566e-01    1.0123739844e+05
    1.1964993179e-01    1.0123737500e+05
    1.1965993792e-01    1.0123736719e+05
    1.1966994405e-01    1.0123735156e+05
    1.1967995018e-01    1.0123733594e+05
    1.1968995631e-01    1.0123733594e+05
    1.1969996244e-01    1.0123731250e+05
    1.1970996857e-01    1.0123728906e+05
    1.1971997470e-01    1.0123728906e+05
    1.1972998083e-01    1.0123727344e+05
    1.1973998696e-01    1.0123727344e+05
    1.1974998564e-01    1.0123725000e+05
    1.1975999177e-01    1.0123722656e+05
    1.1976969987e-01    1.0123722656e+05
    1.1977970600e-01    1.0123721875e+05
    1.1978971213e-01    1.0123721094e+05
    1.1979971826e-01    1.0123719531e+05
    1.1980972439e-01    1.0123717969e+05
    1.1981972307e-01    1.0123716406e+05
    1.1982972920e-01    1.0123715625e+05
    1.1983973533e-01    1.0123714844e+05
    1.1984974146e-01    1.0123713281e+05
    1.1985974759e-01    1.0123712500e+05
    1.1986975372e-01    1.0123710156e+05
    1.1987975985e-01    1.0123709375e+05
    1.1988976598e-01    1.0123708594e+05
    1.1989977211e-01    1.0123707031e+05
    1.1990977824e-01    1.0123705469e+05
    1.1991978437e-01    1.0123703906e+05
    1.1992979050e-01    1.0123703125e+05
    1.1993979663e-01    1.0123702344e+05
    1.1994980276e-01    1.0123700781e+05
    1.1995980889e-01    1.0123700000e+05
    1.1996981502e-01    1.0123697656e+05
    1.1997982115e-01    1.0123697656e+05
    1.1998982728e-01    1.0123696875e+05
    1.1999983341e-01    1.0123696094e+05
endcurve
