Curveplot
LS-DYNA keyword deck by LS-PrePost                          
Time
Pressure
Defined Connection
Pressure @ 5 #pts=12001
* Minval=     6.5716539062e+04 at time=         0.0068097697
* Maxval=     8.2649143750e+05 at time=         0.0017498268
    0.0000000000e+00    1.0120000000e+05
    9.9485323517e-06    1.0120000000e+05
    1.9897421225e-05    1.0120000000e+05
    2.9987359085e-05    1.0120000000e+05
    3.9957587433e-05    1.0120000000e+05
    4.9946385843e-05    1.0120000000e+05
    5.9991551097e-05    1.0120000000e+05
    6.9962465204e-05    1.0120000000e+05
    7.9935569374e-05    1.0120000000e+05
    8.9994748123e-05    1.0120000000e+05
    9.9937955383e-05    1.0120000000e+05
    1.0995466437e-04    1.0120000000e+05
    1.1996396643e-04    1.0120000000e+05
    1.2995616999e-04    1.0120000000e+05
    1.3999607472e-04    1.0120000000e+05
    1.4992381330e-04    1.0120000000e+05
    1.5995846479e-04    1.0120000000e+05
    1.6993863392e-04    1.0120000000e+05
    1.7993355868e-04    1.0120000000e+05
    1.8993651611e-04    1.0120000000e+05
    1.9994015747e-04    1.0120000000e+05
    2.0993674116e-04    1.0120000000e+05
    2.1991907852e-04    1.0120000000e+05
    2.2996698681e-04    1.0120000000e+05
    2.3998788674e-04    1.0120000000e+05
    2.4997413857e-04    1.0120000000e+05
    2.5991807343e-04    1.0120000000e+05
    2.6999608963e-04    1.0120000000e+05
    2.7992666583e-04    1.0120000000e+05
    2.8998075868e-04    1.0120000000e+05
    2.9995955992e-04    1.0120000000e+05
    3.0994432746e-04    1.0120000000e+05
    3.1993203447e-04    1.0120000000e+05
    3.2992125489e-04    1.0120000000e+05
    3.3990875818e-04    1.0120000000e+05
    3.4999576746e-04    1.0120000000e+05
    3.5997995292e-04    1.0120000000e+05
    3.6995849223e-04    1.0120000000e+05
    3.7992699072e-04    1.0120000000e+05
    3.8999255048e-04    1.0120000000e+05
    3.9994457620e-04    1.0120000000e+05
    4.0999049088e-04    1.0120000000e+05
    4.1991623584e-04    1.0120000000e+05
    4.2993400712e-04    1.0120000000e+05
    4.3993728468e-04    1.0120000000e+05
    4.4992336188e-04    1.0120000000e+05
    4.5989057980e-04    1.0120000000e+05
    4.6994743752e-04    1.0120000000e+05
    4.7998587252e-04    1.0120000000e+05
    4.8988772323e-04    1.0120000000e+05
    4.9999402836e-04    1.0120000000e+05
    5.0996005302e-04    1.0120000000e+05
    5.1989621716e-04    1.0120000000e+05
    5.2992330166e-04    1.0120000000e+05
    5.3992093308e-04    1.0120000000e+05
    5.4988719057e-04    1.0120000000e+05
    5.5994186550e-04    1.0120000000e+05
    5.6996219791e-04    1.0120000000e+05
    5.7994580129e-04    1.0120000000e+05
    5.8989576064e-04    1.0120000000e+05
    5.9993297327e-04    1.0120000000e+05
    6.0993159423e-04    1.0120000000e+05
    6.1988970265e-04    1.0120000000e+05
    6.2993442407e-04    1.0120000000e+05
    6.3993420918e-04    1.0120000000e+05
    6.4989202656e-04    1.0120000000e+05
    6.5993593307e-04    1.0120000000e+05
    6.6993333166e-04    1.0120000000e+05
    6.7988195224e-04    1.0120000000e+05
    6.8991590524e-04    1.0120000000e+05
    6.9989782060e-04    1.0120000000e+05
    7.0996471914e-04    1.0120000000e+05
    7.1998027852e-04    1.0120000000e+05
    7.2994048242e-04    1.0120000000e+05
    7.3998502921e-04    1.0120000000e+05
    7.4997195043e-04    1.0120000000e+05
    7.5989874313e-04    1.0120000000e+05
    7.6990859816e-04    1.0120000000e+05
    7.7999942005e-04    1.0120000000e+05
    7.8988278983e-04    1.0120000000e+05
    7.9999724403e-04    1.0120000000e+05
    8.0989580601e-04    1.0120000000e+05
    8.1987574231e-04    1.0120000000e+05
    8.2993827527e-04    1.0120000000e+05
    8.3993020235e-04    1.0120000000e+05
    8.4984872956e-04    1.0120000000e+05
    8.5984810721e-04    1.0120000000e+05
    8.6992827710e-04    1.0120000000e+05
    8.7992975023e-04    1.0120000000e+05
    8.8985508773e-04    1.0120000000e+05
    8.9986022795e-04    1.0120000000e+05
    9.0994627681e-04    1.0120000000e+05
    9.1994955437e-04    1.0120000000e+05
    9.2986720847e-04    1.0120000000e+05
    9.3986350112e-04    1.0120000000e+05
    9.4993936364e-04    1.0120000000e+05
    9.5992581919e-04    1.0120000000e+05
    9.6999108791e-04    1.0120000000e+05
    9.7996345721e-04    1.0120000000e+05
    9.8983978387e-04    1.0120000000e+05
    9.9996186327e-04    1.0120000000e+05
    1.0099929059e-03    1.0120000000e+05
    1.0199240642e-03    1.0120000000e+05
    1.0299314745e-03    1.0120000000e+05
    1.0398352752e-03    1.0120000000e+05
    1.0499967029e-03    1.0120000000e+05
    1.0598701192e-03    1.0120000000e+05
    1.0698179249e-03    1.0120000000e+05
    1.0798411677e-03    1.0120000000e+05
    1.0899405461e-03    1.0120000000e+05
    1.0999278165e-03    1.0120000000e+05
    1.1099902913e-03    1.0120000000e+05
    1.1199369328e-03    1.0120000000e+05
    1.1299577309e-03    1.0120000000e+05
    1.1398587376e-03    1.0120000000e+05
    1.1498329695e-03    1.0120000000e+05
    1.1598808924e-03    1.0120000000e+05
    1.1698048329e-03    1.0120000000e+05
    1.1798016494e-03    1.0120000000e+05
    1.1898722732e-03    1.0120000000e+05
    1.1998136761e-03    1.0120000000e+05
    1.2098184088e-03    1.0120000000e+05
    1.2199042831e-03    1.0120000000e+05
    1.2298591901e-03    1.0120000000e+05
    1.2398868566e-03    1.0120000000e+05
    1.2499880977e-03    1.0120000000e+05
    1.2599510374e-03    1.0120000000e+05
    1.2699866202e-03    1.0120000000e+05
    1.2798795942e-03    1.0120000000e+05
    1.2898436980e-03    1.0120000000e+05
    1.2998800958e-03    1.0120000000e+05
    1.3099898351e-03    1.0120000000e+05
    1.3199513778e-03    1.0120000000e+05
    1.3299848652e-03    1.0120000000e+05
    1.3398660813e-03    1.0120000000e+05
    1.3498181943e-03    1.0120000000e+05
    1.3598409714e-03    1.0120000000e+05
    1.3699374394e-03    1.0120000000e+05
    1.3798744185e-03    1.0120000000e+05
    1.3898841571e-03    1.0120000000e+05
    1.3999656076e-03    1.0120000000e+05
    1.4098823303e-03    1.0120000000e+05
    1.4198700665e-03    1.0120000000e+05
    1.4299297472e-03    1.0120000000e+05
    1.4398202766e-03    1.0120000000e+05
    1.4497813536e-03    1.0120000000e+05
    1.4598157723e-03    1.0120000000e+05
    1.4699220192e-03    1.0120000000e+05
    1.4798516640e-03    1.0120000000e+05
    1.4898539521e-03    1.0120000000e+05
    1.4999271370e-03    1.0120000000e+05
    1.5098194126e-03    1.0120000000e+05
    1.5197825851e-03    1.0120000000e+05
    1.5298170038e-03    1.0120000000e+05
    1.5399240656e-03    1.0120000000e+05
    1.5498430002e-03    1.0120000000e+05
    1.5598329483e-03    1.0120000000e+05
    1.5698948409e-03    1.0120000000e+05
    1.5797623200e-03    1.0120000000e+05
    1.5899700811e-03    1.0120000000e+05
    1.5999816824e-03    1.0120000000e+05
    1.6097921180e-03    1.0120000000e+05
    1.6199483071e-03    1.0120000000e+05
    1.6299015842e-03    1.0120000000e+05
    1.6399266897e-03    1.0120000000e+05
    1.6497381730e-03    1.0120000000e+05
    1.6599006485e-03    1.0120000000e+05
    1.6698610270e-03    1.0120000000e+05
    1.6798936995e-03    1.0120000000e+05
    1.6899999464e-03    1.0120000000e+05
    1.6998888459e-03    1.0120000000e+05
    1.7098496901e-03    1.0120000000e+05
    1.7198832938e-03    1.0120000000e+05
    1.7299905885e-03    1.0120000000e+05
    1.7398729688e-03    1.0120000000e+05
    1.7498268280e-03    8.2649143750e+05
    1.7598542618e-03    8.0455306250e+05
    1.7699557357e-03    7.8429050000e+05
    1.7798233312e-03    7.6521131250e+05
    1.7897633370e-03    7.4663525000e+05
    1.7997768009e-03    7.2859281250e+05
    1.8098647706e-03    7.1104081250e+05
    1.8197101308e-03    6.9450006250e+05
    1.8299488584e-03    6.7789700000e+05
    1.8399427645e-03    6.6223956250e+05
    1.8496857956e-03    6.4748756250e+05
    1.8598285969e-03    6.3264425000e+05
    1.8697179621e-03    6.1865481250e+05
    1.8796816003e-03    6.0502525000e+05
    1.8897202099e-03    5.9174818750e+05
    1.8998304149e-03    5.7882081250e+05
    1.9096811302e-03    5.6663293750e+05
    1.9199510571e-03    5.5434031250e+05
    1.9299554406e-03    5.4276393750e+05
    1.9396878779e-03    5.3184937500e+05
    1.9498446491e-03    5.2081240625e+05
    1.9597269129e-03    5.1042675000e+05
    1.9696848467e-03    5.0028887500e+05
    1.9797196146e-03    4.9038315625e+05
    1.9898330793e-03    4.8070971875e+05
    1.9996610936e-03    4.7160050000e+05
    2.0099328831e-03    4.6236978125e+05
    2.0199164283e-03    4.5367140625e+05
    2.0299786702e-03    4.4516712500e+05
    2.0397440530e-03    4.3715890625e+05
    2.0499650855e-03    4.2902484375e+05
    2.0598811097e-03    4.2136815625e+05
    2.0698811859e-03    4.1386821875e+05
    2.0799615886e-03    4.0652946875e+05
    2.0897313952e-03    3.9962387500e+05
    2.0999738481e-03    3.9259021875e+05
    2.1099029109e-03    3.8596428125e+05
    2.1199120674e-03    3.7947253125e+05
    2.1295980550e-03    3.7336396875e+05
    2.1397697274e-03    3.6712409375e+05
    2.1496147383e-03    3.6124937500e+05
    2.1599554457e-03    3.5525384375e+05
    2.1699662320e-03    3.4961034375e+05
    2.1796361543e-03    3.4429846875e+05
    2.1898106206e-03    3.3885771875e+05
    2.1996449213e-03    3.3373959375e+05
    2.2099909838e-03    3.2849987500e+05
    2.2199733648e-03    3.2357803125e+05
    2.2295671515e-03    3.1896684375e+05
    2.2396398708e-03    3.1425215625e+05
    2.2497479804e-03    3.0963731250e+05
    2.2598931100e-03    3.0512984375e+05
    2.2696135566e-03    3.0092146875e+05
    2.2798092104e-03    2.9661437500e+05
    2.2899906617e-03    2.9241681250e+05
    2.2997611668e-03    2.8849687500e+05
    2.3099719547e-03    2.8449218750e+05
    2.3197480477e-03    2.8075959375e+05
    2.3299583700e-03    2.7694540625e+05
    2.3397512268e-03    2.7338781250e+05
    2.3499566596e-03    2.6975721875e+05
    2.3597027175e-03    2.6636762500e+05
    2.3699051235e-03    2.6290787500e+05
    2.3796730675e-03    2.5967412500e+05
    2.3898500949e-03    2.5637842188e+05
    2.3996063974e-03    2.5329135938e+05
    2.4097957648e-03    2.5014151562e+05
    2.4195301812e-03    2.4720151562e+05
    2.4297153577e-03    2.4419675000e+05
    2.4399179965e-03    2.4124682812e+05
    2.4496186525e-03    2.3851029688e+05
    2.4597418960e-03    2.3571064062e+05
    2.4699058849e-03    2.3297101562e+05
    2.4795893114e-03    2.3040843750e+05
    2.4897414260e-03    2.2778579688e+05
    2.4999852758e-03    2.2519760938e+05
    2.5097203907e-03    2.2278306250e+05
    2.5199630763e-03    2.2029907812e+05
    2.5297892280e-03    2.1796820312e+05
    2.5396368001e-03    2.1568376562e+05
    2.5499435142e-03    2.1333587500e+05
    2.5597966742e-03    2.1113870312e+05
    2.5696754456e-03    2.0897792188e+05
    2.5795616675e-03    2.0685964062e+05
    2.5899470784e-03    2.0468570312e+05
    2.5998691563e-03    2.0264595312e+05
    2.6097879745e-03    2.0064617188e+05
    2.6197093539e-03    1.9868460938e+05
    2.6296265423e-03    1.9676304688e+05
    2.6395432651e-03    1.9487931250e+05
    2.6499023661e-03    1.9295042188e+05
    2.6597725227e-03    1.9114504688e+05
    2.6696398854e-03    1.8937731250e+05
    2.6799128391e-03    1.8756862500e+05
    2.6897108182e-03    1.8587892188e+05
    2.6999050751e-03    1.8415223438e+05
    2.7096113190e-03    1.8253898438e+05
    2.7196940500e-03    1.8089285938e+05
    2.7297041379e-03    1.7928845312e+05
    2.7396476362e-03    1.7772445312e+05
    2.7499510907e-03    1.7613451562e+05
    2.7597567532e-03    1.7464729688e+05
    2.7699181810e-03    1.7313270312e+05
    2.7795895003e-03    1.7171682812e+05
    2.7896128595e-03    1.7027545312e+05
    2.7999754529e-03    1.6881210938e+05
    2.8098584153e-03    1.6744085938e+05
    2.8196743224e-03    1.6610232812e+05
    2.8298280668e-03    1.6474176562e+05
    2.8399107978e-03    1.6341457812e+05
    2.8499234468e-03    1.6211915625e+05
    2.8598662466e-03    1.6085412500e+05
    2.8697380330e-03    1.5961876562e+05
    2.8799341526e-03    1.5836482812e+05
    2.8896701988e-03    1.5718775000e+05
    2.8997252230e-03    1.5599181250e+05
    2.9097096995e-03    1.5482303125e+05
    2.9196236283e-03    1.5368045312e+05
    2.9298453592e-03    1.5252131250e+05
    2.9399932828e-03    1.5138965625e+05
    2.9496958014e-03    1.5032554688e+05
    2.9596996028e-03    1.4924595312e+05
    2.9699984007e-03    1.4815279688e+05
    2.9798566829e-03    1.4712292188e+05
    2.9896441847e-03    1.4611617188e+05
    2.9997206293e-03    1.4509620312e+05
    3.0097228009e-03    1.4410025000e+05
    3.0196506996e-03    1.4312781250e+05
    3.0298558995e-03    1.4214400000e+05
    3.0399831012e-03    1.4118264062e+05
    3.0496874824e-03    1.4027464062e+05
    3.0596631113e-03    1.3935414062e+05
    3.0699025374e-03    1.3842259375e+05
    3.0797237996e-03    1.3754332812e+05
    3.0898044351e-03    1.3665464062e+05
    3.0998052098e-03    1.3578493750e+05
    3.1097261235e-03    1.3493867188e+05
    3.1198952347e-03    1.3408803125e+05
    3.1299800612e-03    1.3324615625e+05
    3.1399817672e-03    1.3241893750e+05
    3.1499008182e-03    1.3163379688e+05
    3.1597372144e-03    1.3086982031e+05
    3.1698048115e-03    1.3005455469e+05
    3.1797848642e-03    1.2925071875e+05
    3.1899858732e-03    1.2851096875e+05
    3.1997899059e-03    1.2783635156e+05
    3.2098102383e-03    1.2706578906e+05
    3.2197393011e-03    1.2625725781e+05
    3.2298734877e-03    1.2550611719e+05
    3.2399110496e-03    1.2488108594e+05
    3.2498519868e-03    1.2427600781e+05
    3.2599845435e-03    1.2355040625e+05
    3.2697296701e-03    1.2280328906e+05
    3.2799434848e-03    1.2205485156e+05
    3.2897698693e-03    1.2139793750e+05
    3.2997704111e-03    1.2078828906e+05
    3.3099355642e-03    1.2019210156e+05
    3.3199861646e-03    1.1958641406e+05
    3.3299217466e-03    1.1897193750e+05
    3.3397423103e-03    1.1836586719e+05
    3.3499682322e-03    1.1773000781e+05
    3.3598076552e-03    1.1710738281e+05
    3.3697776962e-03    1.1648000781e+05
    3.3798674121e-03    1.1586916406e+05
    3.3898185939e-03    1.1529710156e+05
    3.3998736180e-03    1.1473981250e+05
    3.4097800963e-03    1.1419872656e+05
    3.4197727218e-03    1.1364917969e+05
    3.4298384562e-03    1.1309828125e+05
    3.4399633296e-03    1.1255128125e+05
    3.4499084577e-03    1.1202397656e+05
    3.4598901402e-03    1.1149956250e+05
    3.4698925447e-03    1.1098003906e+05
    3.4798975103e-03    1.1046552344e+05
    3.4898857120e-03    1.0995908594e+05
    3.4998361953e-03    1.0945518750e+05
    3.5099210218e-03    1.0894605469e+05
    3.5199075937e-03    1.0844053906e+05
    3.5299491137e-03    1.0793568750e+05
    3.5399908666e-03    1.0744353906e+05
    3.5499697551e-03    1.0697406250e+05
    3.5599700641e-03    1.0652817969e+05
    3.5698700231e-03    1.0610189844e+05
    3.5799255129e-03    1.0566383594e+05
    3.5899069626e-03    1.0521575781e+05
    3.5999584943e-03    1.0476146094e+05
    3.6099066492e-03    1.0432212500e+05
    3.6198862363e-03    1.0388797656e+05
    3.6299673375e-03    1.0344713281e+05
    3.6399594974e-03    1.0300747656e+05
    3.6499558482e-03    1.0257649219e+05
    3.6599379964e-03    1.0217121094e+05
    3.6699585617e-03    1.0179081250e+05
    3.6799723748e-03    1.0141889844e+05
    3.6899053957e-03    1.0102483594e+05
    3.6998658907e-03    1.0060328125e+05
    3.7099672481e-03    1.0017806250e+05
    3.7198278587e-03    9.9793195312e+04
    3.7299448159e-03    9.9432164062e+04
    3.7398831919e-03    9.9088289062e+04
    3.7498837337e-03    9.8726554688e+04
    3.7598216441e-03    9.8346945312e+04
    3.7698238157e-03    9.7959648438e+04
    3.7799475249e-03    9.7581500000e+04
    3.7899403833e-03    9.7236093750e+04
    3.7998470943e-03    9.6918726562e+04
    3.8099947851e-03    9.6587367188e+04
    3.8198439870e-03    9.6231750000e+04
    3.8299357984e-03    9.5853187500e+04
    3.8399139885e-03    9.5508750000e+04
    3.8499354851e-03    9.5206835938e+04
    3.8598228712e-03    9.4918070312e+04
    3.8699668366e-03    9.4586562500e+04
    3.8799596950e-03    9.4234320312e+04
    3.8898051716e-03    9.3903218750e+04
    3.8998932578e-03    9.3602335938e+04
    3.9098444395e-03    9.3323132812e+04
    3.9198193699e-03    9.3016867188e+04
    3.9298702031e-03    9.2679851562e+04
    3.9399443194e-03    9.2359851562e+04
    3.9498633705e-03    9.2089257812e+04
    3.9598140866e-03    9.1830648438e+04
    3.9698011242e-03    9.1532945312e+04
    3.9798449725e-03    9.1206914062e+04
    3.9899130352e-03    9.0910335938e+04
    3.9998306893e-03    9.0660867188e+04
    4.0099634789e-03    9.0403460938e+04
    4.0199505165e-03    9.0111812500e+04
    4.0299603716e-03    8.9817617188e+04
    4.0399958380e-03    8.9561210938e+04
    4.0498771705e-03    8.9328914062e+04
    4.0599633940e-03    8.9060539062e+04
    4.0699257515e-03    8.8766351562e+04
    4.0798676200e-03    8.8495476562e+04
    4.0898602456e-03    8.8263289062e+04
    4.0999138728e-03    8.8029375000e+04
    4.1099260561e-03    8.7765023438e+04
    4.1198343970e-03    8.7505429688e+04
    4.1299243458e-03    8.7270875000e+04
    4.1398466565e-03    8.7045710938e+04
    4.1498220526e-03    8.6793000000e+04
    4.1599851102e-03    8.6532164062e+04
    4.1698063724e-03    8.6312429688e+04
    4.1798232123e-03    8.6104078125e+04
    4.1898884811e-03    8.5869820312e+04
    4.1997777298e-03    8.5620250000e+04
    4.2098723352e-03    8.5388937500e+04
    4.2198128067e-03    8.5188101562e+04
    4.2297667824e-03    8.4976039062e+04
    4.2399778031e-03    8.4738531250e+04
    4.2499965057e-03    8.4514484375e+04
    4.2597968131e-03    8.4313843750e+04
    4.2698592879e-03    8.4106445312e+04
    4.2799431831e-03    8.3890804688e+04
    4.2898193933e-03    8.3683406250e+04
    4.2999647558e-03    8.3478500000e+04
    4.3098828755e-03    8.3274789062e+04
    4.3198284693e-03    8.3067390625e+04
    4.3297996745e-03    8.2874000000e+04
    4.3397829868e-03    8.2689468750e+04
    4.3497872539e-03    8.2492562500e+04
    4.3598120101e-03    8.2284906250e+04
    4.3698498048e-03    8.2083757812e+04
    4.3799062259e-03    8.1899429688e+04
    4.3899826705e-03    8.1720328125e+04
    4.3998318724e-03    8.1540960938e+04
    4.4099334627e-03    8.1357031250e+04
    4.4198073447e-03    8.1175179688e+04
    4.4299373403e-03    8.0986265625e+04
    4.4398335740e-03    8.0801507812e+04
    4.4499807991e-03    8.0619281250e+04
    4.4598970562e-03    8.0449054688e+04
    4.4698193669e-03    8.0279914062e+04
    4.4799894094e-03    8.0109335938e+04
    4.4899224304e-03    7.9943476562e+04
    4.4998591766e-03    7.9779046875e+04
    4.5097959228e-03    7.9612554688e+04
    4.5199757442e-03    7.9444039062e+04
    4.5299134217e-03    7.9282476562e+04
    4.5398515649e-03    7.9123148438e+04
    4.5497897081e-03    7.8964414062e+04
    4.5599699952e-03    7.8802765625e+04
    4.5699076727e-03    7.8647468750e+04
    4.5798448846e-03    7.8493312500e+04
    4.5897820964e-03    7.8341289062e+04
    4.5999614522e-03    7.8187218750e+04
    4.6098977327e-03    7.8039203125e+04
    4.6198335476e-03    7.7890921875e+04
    4.6297688968e-03    7.7743062500e+04
    4.6399459243e-03    7.7592203125e+04
    4.6498798765e-03    7.7447468750e+04
    4.6598133631e-03    7.7304562500e+04
    4.6699885279e-03    7.7160093750e+04
    4.6799196862e-03    7.7019906250e+04
    4.6898513101e-03    7.6880937500e+04
    4.6997801401e-03    7.6743601562e+04
    4.7099497169e-03    7.6605351562e+04
    4.7198785469e-03    7.6473046875e+04
    4.7298041172e-03    7.6342390625e+04
    4.7399727628e-03    7.6209570312e+04
    4.7499025241e-03    7.6079335938e+04
    4.7598341480e-03    7.5948945312e+04
    4.7697741538e-03    7.5818773438e+04
    4.7799590975e-03    7.5688195312e+04
    4.7899102792e-03    7.5564179688e+04
    4.7998726368e-03    7.5442539062e+04
    4.8098377883e-03    7.5320492188e+04
    4.8198117875e-03    7.5196734375e+04
    4.8297992907e-03    7.5073375000e+04
    4.8397919163e-03    7.4953960938e+04
    4.8497910611e-03    7.4839226562e+04
    4.8598027788e-03    7.4725171875e+04
    4.8698238097e-03    7.4607695312e+04
    4.8798490316e-03    7.4487164062e+04
    4.8898831010e-03    7.4368523438e+04
    4.8999325372e-03    7.4255992188e+04
    4.9099833705e-03    7.4148320312e+04
    4.9197939225e-03    7.4042554688e+04
    4.9298643135e-03    7.3930007812e+04
    4.9399440177e-03    7.3816242188e+04
    4.9497755244e-03    7.3709390625e+04
    4.9598654732e-03    7.3605484375e+04
    4.9699693918e-03    7.3502898438e+04
    4.9798274413e-03    7.3399390625e+04
    4.9899341539e-03    7.3290335938e+04
    4.9998094328e-03    7.3186125000e+04
    5.0099422224e-03    7.3085390625e+04
    5.0198221579e-03    7.2990906250e+04
    5.0299596041e-03    7.2892171875e+04
    5.0398670137e-03    7.2791921875e+04
    5.0497758202e-03    7.2691554688e+04
    5.0599267706e-03    7.2593414062e+04
    5.0698504783e-03    7.2502367188e+04
    5.0797816366e-03    7.2411992188e+04
    5.0899605267e-03    7.2316289062e+04
    5.0998888910e-03    7.2220867188e+04
    5.1098437980e-03    7.2127250000e+04
    5.1197856665e-03    7.2038156250e+04
    5.1299878396e-03    7.1949218750e+04
    5.1399455406e-03    7.1861085938e+04
    5.1499260589e-03    7.1770757812e+04
    5.1598856226e-03    7.1681695312e+04
    5.1698694006e-03    7.1596421875e+04
    5.1798620261e-03    7.1514179688e+04
    5.1898574457e-03    7.1431195312e+04
    5.1998388954e-03    7.1345726562e+04
    5.2098529413e-03    7.1259804688e+04
    5.2198763005e-03    7.1177046875e+04
    5.2298884839e-03    7.1097710938e+04
    5.2398932166e-03    7.1018804688e+04
    5.2499277517e-03    7.0938273438e+04
    5.2599720657e-03    7.0857828125e+04
    5.2697570063e-03    7.0781648438e+04
    5.2797794342e-03    7.0705398438e+04
    5.2898246795e-03    7.0628718750e+04
    5.2998876199e-03    7.0551398438e+04
    5.3099542856e-03    7.0475414062e+04
    5.3197578527e-03    7.0403718750e+04
    5.3298217244e-03    7.0331140625e+04
    5.3398981690e-03    7.0258093750e+04
    5.3499899805e-03    7.0184984375e+04
    5.3598210216e-03    7.0114882812e+04
    5.3699067794e-03    7.0044101562e+04
    5.3799962625e-03    6.9973773438e+04
    5.3898561746e-03    6.9905570312e+04
    5.3999647498e-03    6.9836765625e+04
    5.4098195396e-03    6.9770812500e+04
    5.4199309088e-03    6.9703718750e+04
    5.4298052564e-03    6.9638554688e+04
    5.4399389774e-03    6.9572218750e+04
    5.4498109967e-03    6.9508312500e+04
    5.4599456489e-03    6.9443468750e+04
    5.4698348977e-03    6.9380906250e+04
    5.4799872451e-03    6.9317359375e+04
    5.4898797534e-03    6.9256078125e+04
    5.4997764528e-03    6.9195429688e+04
    5.5099362507e-03    6.9134015625e+04
    5.5198539048e-03    6.9075039062e+04
    5.5297687650e-03    6.9016882812e+04
    5.5399322882e-03    6.8957820312e+04
    5.5498550646e-03    6.8900468750e+04
    5.5597913451e-03    6.8843382812e+04
    5.5699860677e-03    6.8785359375e+04
    5.5799190886e-03    6.8729632812e+04
    5.5898404680e-03    6.8674984375e+04
    5.5997762829e-03    6.8621218750e+04
    5.6099868380e-03    6.8566656250e+04
    5.6199482642e-03    6.8513765625e+04
    5.6299068965e-03    6.8461109375e+04
    5.6398622692e-03    6.8408812500e+04
    5.6498148479e-03    6.8357242188e+04
    5.6597688235e-03    6.8306687500e+04
    5.6699775159e-03    6.8255781250e+04
    5.6799417362e-03    6.8206648438e+04
    5.6899120100e-03    6.8157898438e+04
    5.6998799555e-03    6.8109718750e+04
    5.7098451070e-03    6.8062242188e+04
    5.7198093273e-03    6.8015367188e+04
    5.7297726162e-03    6.7968867188e+04
    5.7399906218e-03    6.7921484375e+04
    5.7499534450e-03    6.7875835938e+04
    5.7599171996e-03    6.7831007812e+04
    5.7698814198e-03    6.7786992188e+04
    5.7798470370e-03    6.7743500000e+04
    5.7898140512e-03    6.7700320312e+04
    5.7997833937e-03    6.7657539062e+04
    5.8097522706e-03    6.7615390625e+04
    5.8199749328e-03    6.7572859375e+04
    5.8299414814e-03    6.7531968750e+04
    5.8399070986e-03    6.7491507812e+04
    5.8498722501e-03    6.7451515625e+04
    5.8598374017e-03    6.7412117188e+04
    5.8698025532e-03    6.7373437500e+04
    5.8797672391e-03    6.7335414062e+04
    5.8899871074e-03    6.7296937500e+04
    5.8999513276e-03    6.7259843750e+04
    5.9099150822e-03    6.7223171875e+04
    5.9198788367e-03    6.7186937500e+04
    5.9298425913e-03    6.7151210938e+04
    5.9398058802e-03    6.7115992188e+04
    5.9497691691e-03    6.7081296875e+04
    5.9599881060e-03    6.7046273438e+04
    5.9699518606e-03    6.7012601562e+04
    5.9799170122e-03    6.6979359375e+04
    5.9898812324e-03    6.6946593750e+04
    5.9998445213e-03    6.6914390625e+04
    6.0098068789e-03    6.6882757812e+04
    6.0197678395e-03    6.6851585938e+04
    6.0299839824e-03    6.6820062500e+04
    6.0399444774e-03    6.6789828125e+04
    6.0499049723e-03    6.6760156250e+04
    6.0598668642e-03    6.6731031250e+04
    6.0698301531e-03    6.6702421875e+04
    6.0797939077e-03    6.6674320312e+04
    6.0897571966e-03    6.6646648438e+04
    6.0999765992e-03    6.6618476562e+04
    6.1099403538e-03    6.6591007812e+04
    6.1199027114e-03    6.6563726562e+04
    6.1298641376e-03    6.6537242188e+04
    6.1398246326e-03    6.6512007812e+04
    6.1497841962e-03    6.6487640625e+04
    6.1597451568e-03    6.6463109375e+04
    6.1699673533e-03    6.6437132812e+04
    6.1799357645e-03    6.6411734375e+04
    6.1899027787e-03    6.6387734375e+04
    6.1998683959e-03    6.6365851562e+04
    6.2098335475e-03    6.6345312500e+04
    6.2197982334e-03    6.6324500000e+04
    6.2297671102e-03    6.6302476562e+04
    6.2399944291e-03    6.6279226562e+04
    6.2499647029e-03    6.6257335938e+04
    6.2599340454e-03    6.6237046875e+04
    6.2699029222e-03    6.6217937500e+04
    6.2798713334e-03    6.6198937500e+04
    6.2898425385e-03    6.6179507812e+04
    6.2998170033e-03    6.6160117188e+04
    6.3097900711e-03    6.6141546875e+04
    6.3197622076e-03    6.6123921875e+04
    6.3299885951e-03    6.6106296875e+04
    6.3399625942e-03    6.6089171875e+04
    6.3499398530e-03    6.6072273438e+04
    6.3599157147e-03    6.6055937500e+04
    6.3698911108e-03    6.6040210938e+04
    6.3798651099e-03    6.6024906250e+04
    6.3898423687e-03    6.6009914062e+04
    6.3998219557e-03    6.5995218750e+04
    6.4098001458e-03    6.5980851562e+04
    6.4197774045e-03    6.5966906250e+04
    6.4297546633e-03    6.5953445312e+04
    6.4399912953e-03    6.5940179688e+04
    6.4499722794e-03    6.5927671875e+04
    6.4599523321e-03    6.5915476562e+04
    6.4699319191e-03    6.5903609375e+04
    6.4799129032e-03    6.5892132812e+04
    6.4898948185e-03    6.5881039062e+04
    6.4998758025e-03    6.5870234375e+04
    6.5098563209e-03    6.5859671875e+04
    6.5198377706e-03    6.5849429688e+04
    6.5298196860e-03    6.5839648438e+04
    6.5398011357e-03    6.5830351562e+04
    6.5497825854e-03    6.5821468750e+04
    6.5597640350e-03    6.5812968750e+04
    6.5697459504e-03    6.5804875000e+04
    6.5799830481e-03    6.5796976562e+04
    6.5899640322e-03    6.5789585938e+04
    6.5999454819e-03    6.5782445312e+04
    6.6099269316e-03    6.5775640625e+04
    6.6199074499e-03    6.5769273438e+04
    6.6298884340e-03    6.5763335938e+04
    6.6398689523e-03    6.5757773438e+04
    6.6498494707e-03    6.5752539062e+04
    6.6598295234e-03    6.5747695312e+04
    6.6698095761e-03    6.5743273438e+04
    6.6797896288e-03    6.5739187500e+04
    6.6897692159e-03    6.5735367188e+04
    6.6997483373e-03    6.5731820312e+04
    6.7099835724e-03    6.5728484375e+04
    6.7199626938e-03    6.5725523438e+04
    6.7299418151e-03    6.5722898438e+04
    6.7399209365e-03    6.5720835938e+04
    6.7499009892e-03    6.5719562500e+04
    6.7598801106e-03    6.5719117188e+04
    6.7698587663e-03    6.5719140625e+04
    6.7798364908e-03    6.5719007812e+04
    6.7898137495e-03    6.5718289062e+04
    6.7997914739e-03    6.5717218750e+04
    6.8097696640e-03    6.5716539062e+04
    6.8197501823e-03    6.5716789062e+04
    6.8299868144e-03    6.5717953125e+04
    6.8399673328e-03    6.5719679688e+04
    6.8499473855e-03    6.5721882812e+04
    6.8599269725e-03    6.5724531250e+04
    6.8699060939e-03    6.5727289062e+04
    6.8798852153e-03    6.5729742188e+04
    6.8898648024e-03    6.5732125000e+04
    6.8998434581e-03    6.5735164062e+04
    6.9098225795e-03    6.5739164062e+04
    6.9198012352e-03    6.5743632812e+04
    6.9297798909e-03    6.5748078125e+04
    6.9397580810e-03    6.5752593750e+04
    6.9499919191e-03    6.5757765625e+04
    6.9599705748e-03    6.5763382812e+04
    6.9699492306e-03    6.5769257812e+04
    6.9799274206e-03    6.5775250000e+04
    6.9899056107e-03    6.5781539062e+04
    6.9998847321e-03    6.5788257812e+04
    7.0098680444e-03    6.5795343750e+04
    7.0198555477e-03    6.5802695312e+04
    7.0298444480e-03    6.5810406250e+04
    7.0398352109e-03    6.5818554688e+04
    7.0498269051e-03    6.5827054688e+04
    7.0598172024e-03    6.5835710938e+04
    7.0698074996e-03    6.5844476562e+04
    7.0797963999e-03    6.5853492188e+04
    7.0897857659e-03    6.5862921875e+04
    7.0997760631e-03    6.5872804688e+04
    7.1097677574e-03    6.5883062500e+04
    7.1197599173e-03    6.5893585938e+04
    7.1297516115e-03    6.5904367188e+04
    7.1399989538e-03    6.5915765625e+04
    7.1499901824e-03    6.5927210938e+04
    7.1599804796e-03    6.5938953125e+04
    7.1699712425e-03    6.5951000000e+04
    7.1799615398e-03    6.5963460938e+04
    7.1899523027e-03    6.5976460938e+04
    7.1999435313e-03    6.5989968750e+04
    7.2099347599e-03    6.6003757812e+04
    7.2199250571e-03    6.6017632812e+04
    7.2299162857e-03    6.6031609375e+04
    7.2399112396e-03    6.6045906250e+04
    7.2499085218e-03    6.6060648438e+04
    7.2599058039e-03    6.6075710938e+04
    7.2699063458e-03    6.6090960938e+04
    7.2799162008e-03    6.6106468750e+04
    7.2899279185e-03    6.6122414062e+04
    7.2999470867e-03    6.6138812500e+04
    7.3099727742e-03    6.6155484375e+04
    7.3197488673e-03    6.6171867188e+04
    7.3297889903e-03    6.6188945312e+04
    7.3398360983e-03    6.6206453125e+04
    7.3498939164e-03    6.6224367188e+04
    7.3599573225e-03    6.6242539062e+04
    7.3697702028e-03    6.6260492188e+04
    7.3798508383e-03    6.6279289062e+04
    7.3899412528e-03    6.6298484375e+04
    7.3997820728e-03    6.6317515625e+04
    7.4098859914e-03    6.6337335938e+04
    7.4199941009e-03    6.6357492188e+04
    7.4298582040e-03    6.6377500000e+04
    7.4399863370e-03    6.6398382812e+04
    7.4498639442e-03    6.6419039062e+04
    7.4597462080e-03    6.6439968750e+04
    7.4698925018e-03    6.6461710938e+04
    7.4797933921e-03    6.6483179688e+04
    7.4899606407e-03    6.6505515625e+04
    7.4998755008e-03    6.6527625000e+04
    7.5097940862e-03    6.6550078125e+04
    7.5199767016e-03    6.6573445312e+04
    7.5299129821e-03    6.6596562500e+04
    7.5398539193e-03    6.6619976562e+04
    7.5497985817e-03    6.6643703125e+04
    7.5597530231e-03    6.6667796875e+04
    7.5699663721e-03    6.6692890625e+04
    7.5799371116e-03    6.6717726562e+04
    7.5899106450e-03    6.6742828125e+04
    7.5998874381e-03    6.6768156250e+04
    7.6098768041e-03    6.6793726562e+04
    7.6198661700e-03    6.6819531250e+04
    7.6298676431e-03    6.6845648438e+04
    7.6398709789e-03    6.6872148438e+04
    7.6498747803e-03    6.6899039062e+04
    7.6598967426e-03    6.6926335938e+04
    7.6699187048e-03    6.6953851562e+04
    7.6799504459e-03    6.6981593750e+04
    7.6899868436e-03    6.7009593750e+04
    7.6997536235e-03    6.7037164062e+04
    7.7098053880e-03    6.7065851562e+04
    7.7198585495e-03    6.7094828125e+04
    7.7299191616e-03    6.7124023438e+04
    7.7399853617e-03    6.7153460938e+04
    7.7497814782e-03    6.7182343750e+04
    7.7598588541e-03    6.7212312500e+04
    7.7699455433e-03    6.7242546875e+04
    7.7797649428e-03    6.7272148438e+04
    7.7898576856e-03    6.7302742188e+04
    7.7999471687e-03    6.7333656250e+04
    7.8097819351e-03    6.7364468750e+04
    7.8198928386e-03    6.7397507812e+04
    7.8297406435e-03    6.7431789062e+04
    7.8398631886e-03    6.7469796875e+04
    7.8499810770e-03    6.7510421875e+04
    7.8598400578e-03    6.7551234375e+04
    7.8699793667e-03    6.7592171875e+04
    7.8798523173e-03    6.7628875000e+04
    7.8899981454e-03    6.7662648438e+04
    7.8998785466e-03    6.7693218750e+04
    7.9097636044e-03    6.7724468750e+04
    7.9199234024e-03    6.7759640625e+04
    7.9298196360e-03    6.7796882812e+04
    7.9399924725e-03    6.7836312500e+04
    7.9499017447e-03    6.7873984375e+04
    7.9598072916e-03    6.7910578125e+04
    7.9699913040e-03    6.7948203125e+04
    7.9799126834e-03    6.7985898438e+04
    7.9898387194e-03    6.8024617188e+04
    7.9997712746e-03    6.8063765625e+04
    8.0099748448e-03    6.8104125000e+04
    8.0199139193e-03    6.8143773438e+04
    8.0298529938e-03    6.8183921875e+04
    8.0397976562e-03    6.8224484375e+04
    8.0497562885e-03    6.8265335938e+04
    8.0599840730e-03    6.8307523438e+04
    8.0699445680e-03    6.8348843750e+04
    8.0799115822e-03    6.8390367188e+04
    8.0898813903e-03    6.8432054688e+04
    8.0998539925e-03    6.8473984375e+04
    8.1098331138e-03    6.8516343750e+04
    8.1198178232e-03    6.8559257812e+04
    8.1298053265e-03    6.8602781250e+04
    8.1397918984e-03    6.8646828125e+04
    8.1497849897e-03    6.8691359375e+04
    8.1597864628e-03    6.8736312500e+04
    8.1697888672e-03    6.8781601562e+04
    8.1797968596e-03    6.8827234375e+04
    8.1898132339e-03    6.8873171875e+04
    8.1998333335e-03    6.8919375000e+04
    8.2098534331e-03    6.8965820312e+04
    8.2198781893e-03    6.9012632812e+04
    8.2299131900e-03    6.9059992188e+04
    8.2399481907e-03    6.9107921875e+04
    8.2499831915e-03    6.9156367188e+04
    8.2597564906e-03    6.9203929688e+04
    8.2698054612e-03    6.9253156250e+04
    8.2798497751e-03    6.9302710938e+04
    8.2898978144e-03    6.9352679688e+04
    8.2999551669e-03    6.9403054688e+04
    8.3097433671e-03    6.9452414062e+04
    8.3198072389e-03    6.9503523438e+04
    8.3298776299e-03    6.9555164062e+04
    8.3399554715e-03    6.9607453125e+04
    8.3497585729e-03    6.9658804688e+04
    8.3598354831e-03    6.9711875000e+04
    8.3699217066e-03    6.9765187500e+04
    8.3797378466e-03    6.9817375000e+04
    8.3898259327e-03    6.9871593750e+04
    8.3999196067e-03    6.9926539062e+04
    8.4097478539e-03    6.9980617188e+04
    8.4198480472e-03    7.0036562500e+04
    8.4299473092e-03    7.0092750000e+04
    8.4397848696e-03    7.0147757812e+04
    8.4499036893e-03    7.0204804688e+04
    8.4597459063e-03    7.0260851562e+04
    8.4698675200e-03    7.0319101562e+04
    8.4799947217e-03    7.0377992188e+04
    8.4898499772e-03    7.0435859375e+04
    8.4999753162e-03    7.0495781250e+04
    8.5098352283e-03    7.0554437500e+04
    8.5199791938e-03    7.0615000000e+04
    8.5298474878e-03    7.0674187500e+04
    8.5399923846e-03    7.0735578125e+04
    8.5498718545e-03    7.0796187500e+04
    8.5597522557e-03    7.0857750000e+04
    8.5699064657e-03    7.0921867188e+04
    8.5797905922e-03    7.0984835938e+04
    8.5899606347e-03    7.1049929688e+04
    8.5998540744e-03    7.1113437500e+04
    8.6097465828e-03    7.1177140625e+04
    8.6199222133e-03    7.1242992188e+04
    8.6298305541e-03    7.1307539062e+04
    8.6397351697e-03    7.1372617188e+04
    8.6499191821e-03    7.1440273438e+04
    8.6598386988e-03    7.1507054688e+04
    8.6697591469e-03    7.1574781250e+04
    8.6799506098e-03    7.1645250000e+04
    8.6898738518e-03    7.1714539062e+04
    8.6998092011e-03    7.1784375000e+04
    8.7097398937e-03    7.1854578125e+04
    8.7199462578e-03    7.1927250000e+04
    8.7298899889e-03    7.1998789062e+04
    8.7398374453e-03    7.2072734375e+04
    8.7497802451e-03    7.8147343750e+04
    8.7597267702e-03    1.1220853906e+05
    8.7699592113e-03    1.1210285156e+05
    8.7799159810e-03    1.1196677344e+05
    8.7898690253e-03    1.1180484375e+05
    8.7998351082e-03    1.1165081250e+05
    8.8098095730e-03    1.1149885156e+05
    8.8197784498e-03    1.1134902344e+05
    8.8297501206e-03    1.1120160156e+05
    8.8397338986e-03    1.1105639844e+05
    8.8497232646e-03    1.1091268750e+05
    8.8599827141e-03    1.1076902344e+05
    8.8699664921e-03    1.1063271875e+05
    8.8799661025e-03    1.1049439844e+05
    8.8899619877e-03    1.1036271094e+05
    8.8999560103e-03    1.1022986719e+05
    8.9099621400e-03    1.1009953125e+05
    8.9199785143e-03    1.0997116406e+05
    8.9299911633e-03    1.0984496094e+05
    8.9397253469e-03    1.0972439844e+05
    8.9497473091e-03    1.0960228906e+05
    8.9597767219e-03    1.0948124219e+05
    8.9697921649e-03    1.0936188281e+05
    8.9798178524e-03    1.0924391406e+05
    8.9898621663e-03    1.0912678906e+05
    8.9999018237e-03    1.0901122656e+05
    9.0099396184e-03    1.0889696875e+05
    9.0199876577e-03    1.0878332031e+05
    9.0297684073e-03    1.0867309375e+05
    9.0398211032e-03    1.0856011719e+05
    9.0498672798e-03    1.0844721094e+05
    9.0599274263e-03    1.0833441406e+05
    9.0699987486e-03    1.0822196875e+05
    9.0797832236e-03    1.0811258594e+05
    9.0898564085e-03    1.0799944531e+05
    9.0999435633e-03    1.0788549219e+05
    9.1097485274e-03    1.0777456250e+05
    9.1198273003e-03    1.0766022656e+05
    9.1299135238e-03    1.0754550781e+05
    9.1397343203e-03    1.0743343750e+05
    9.1498270631e-03    1.0731821875e+05
    9.1599160805e-03    1.0720256250e+05
    9.1697480530e-03    1.0708960156e+05
    9.1798650101e-03    1.0697346094e+05
    9.1899782419e-03    1.0685650000e+05
    9.1998148710e-03    1.0674450000e+05
    9.2099467292e-03    1.0662803906e+05
    9.2198019847e-03    1.0651569531e+05
    9.2299301177e-03    1.0640013281e+05
    9.2397760600e-03    1.0628753125e+05
    9.2499163002e-03    1.0617178906e+05
    9.2597678304e-03    1.0605971094e+05
    9.2699015513e-03    1.0594492969e+05
    9.2797707766e-03    1.0583364844e+05
    9.2899342999e-03    1.0571975781e+05
    9.2998137698e-03    1.0560937500e+05
    9.3099735677e-03    1.0549592969e+05
    9.3198567629e-03    1.0538578906e+05
    9.3297418207e-03    1.0527614844e+05
    9.3399006873e-03    1.0516416406e+05
    9.3497829512e-03    1.0505596094e+05
    9.3599678949e-03    1.0494516406e+05
    9.3698687851e-03    1.0483783594e+05
    9.3797678128e-03    1.0473059375e+05
    9.3899536878e-03    1.0462071094e+05
    9.3998694792e-03    1.0451424219e+05
    9.4097880647e-03    1.0440862500e+05
    9.4199888408e-03    1.0430083594e+05
    9.4299111515e-03    1.0419646875e+05
    9.4398325309e-03    1.0409241406e+05
    9.4497520477e-03    1.0398847656e+05
    9.4599612057e-03    1.0388183594e+05
    9.4698881730e-03    1.0377885156e+05
    9.4798225909e-03    1.0367663281e+05
    9.4897514209e-03    1.0357496094e+05
    9.4999680296e-03    1.0347047656e+05
    9.5099089667e-03    1.0336983594e+05
    9.5198564231e-03    1.0327019531e+05
    9.5298020169e-03    1.0317049219e+05
    9.5397541299e-03    1.0307144531e+05
    9.5499921590e-03    1.0296943750e+05
    9.5599433407e-03    1.0287080469e+05
    9.5698954538e-03    1.0277255469e+05
    9.5798447728e-03    1.0267564844e+05
    9.5898052678e-03    1.0257872656e+05
    9.5997676253e-03    1.0248228906e+05
    9.6097327769e-03    1.0238614844e+05
    9.6199903637e-03    1.0228788281e+05
    9.6299648285e-03    1.0219302344e+05
    9.6399355680e-03    1.0209857031e+05
    9.6499063075e-03    1.0200447656e+05
    9.6598751843e-03    1.0191085156e+05
    9.6698459238e-03    1.0181764844e+05
    9.6798157319e-03    1.0172500781e+05
    9.6897948533e-03    1.0163272656e+05
    9.6997786313e-03    1.0154075781e+05
    9.7097633407e-03    1.0144931250e+05
    9.7197443247e-03    1.0135847656e+05
    9.7297336906e-03    1.0126808594e+05
    9.7397221252e-03    1.0117816406e+05
    9.7499918193e-03    1.0108621094e+05
    9.7599858418e-03    1.0099710156e+05
    9.7699770704e-03    1.0090838281e+05
    9.7799766809e-03    1.0082019531e+05
    9.7899660468e-03    1.0073255469e+05
    9.7999684513e-03    1.0064531250e+05
    9.8099745810e-03    1.0055831250e+05
    9.8199835047e-03    1.0047178125e+05
    9.8299914971e-03    1.0038590625e+05
    9.8397294059e-03    1.0030246094e+05
    9.8497560248e-03    1.0021688281e+05
    9.8597826436e-03    1.0013169531e+05
    9.8698064685e-03    1.0004702344e+05
    9.8798228428e-03    9.9962882812e+04
    9.8898522556e-03    9.9878882812e+04
    9.8998872563e-03    9.9795664062e+04
    9.9099325016e-03    9.9712679688e+04
    9.9199824035e-03    9.9630312500e+04
    9.9297482520e-03    9.9550460938e+04
    9.9398037419e-03    9.9468687500e+04
    9.9498573691e-03    9.9387351562e+04
    9.9599100649e-03    9.9306289062e+04
    9.9699608982e-03    9.9225593750e+04
    9.9797230214e-03    9.9147742188e+04
    9.9897710606e-03    9.9068117188e+04
    9.9998190999e-03    9.8989031250e+04
    1.0009868070e-02    9.8910406250e+04
    1.0019916110e-02    9.8831835938e+04
    1.0029965080e-02    9.8753289062e+04
    1.0039729066e-02    9.8677210938e+04
    1.0049779899e-02    9.8599281250e+04
    1.0059829801e-02    9.8522031250e+04
    1.0069879703e-02    9.8445335938e+04
    1.0079928674e-02    9.8369093750e+04
    1.0089977644e-02    9.8293335938e+04
    1.0099737905e-02    9.8219968750e+04
    1.0109785944e-02    9.8144789062e+04
    1.0119833052e-02    9.8069773438e+04
    1.0129880160e-02    9.7995085938e+04
    1.0139928199e-02    9.7921093750e+04
    1.0149976239e-02    9.7847476562e+04
    1.0159740224e-02    9.7775851562e+04
    1.0169791058e-02    9.7702335938e+04
    1.0179840028e-02    9.7629437500e+04
    1.0189894587e-02    9.7556914062e+04
    1.0199952871e-02    9.7484695312e+04
    1.0209721513e-02    9.7414718750e+04
    1.0219780728e-02    9.7343226562e+04
    1.0229840875e-02    9.7271937500e+04
    1.0239911266e-02    9.7200664062e+04
    1.0249984451e-02    9.7129851562e+04
    1.0259771720e-02    9.7061226562e+04
    1.0269851424e-02    9.6990960938e+04
    1.0279939510e-02    9.6920835938e+04
    1.0289737955e-02    9.6852914062e+04
    1.0299845599e-02    9.6783085938e+04
    1.0309962556e-02    9.6713437500e+04
    1.0319790803e-02    9.6646070312e+04
    1.0329910554e-02    9.6577070312e+04
    1.0339735076e-02    9.6510523438e+04
    1.0349875316e-02    9.6441937500e+04
    1.0359734297e-02    9.6375304688e+04
    1.0369883850e-02    9.6306960938e+04
    1.0379751213e-02    9.6240781250e+04
    1.0389924981e-02    9.6173351562e+04
    1.0399803519e-02    9.6108375000e+04
    1.0409989394e-02    9.6041085938e+04
    1.0419898666e-02    9.5974679688e+04
    1.0429820046e-02    9.5907468750e+04
    1.0439745151e-02    9.5840960938e+04
    1.0449954309e-02    9.5775023438e+04
    1.0459883139e-02    9.5713226562e+04
    1.0469836183e-02    9.5651882812e+04
    1.0479790159e-02    9.5588648438e+04
    1.0489752516e-02    9.5521367188e+04
    1.0499735363e-02    9.5451335938e+04
    1.0509715416e-02    9.5382679688e+04
    1.0519991629e-02    9.5317343750e+04
    1.0529975407e-02    9.5259242188e+04
    1.0539975949e-02    9.5204039062e+04
    1.0549998842e-02    9.5147523438e+04
    1.0559727438e-02    9.5087085938e+04
    1.0569768026e-02    9.5018835938e+04
    1.0579830036e-02    9.4946937500e+04
    1.0589914396e-02    9.4876562500e+04
    1.0599729605e-02    9.4811976562e+04
    1.0609869845e-02    9.4749156250e+04
    1.0619731620e-02    9.4690945312e+04
    1.0629909113e-02    9.4632992188e+04
    1.0639792308e-02    9.4577507812e+04
    1.0649980046e-02    9.4520031250e+04
    1.0659878142e-02    9.4463367188e+04
    1.0669777170e-02    9.4405492188e+04
    1.0679990053e-02    9.4344531250e+04
    1.0689937510e-02    9.4283820312e+04
    1.0699936189e-02    9.4221289062e+04
    1.0709698312e-02    9.4159343750e+04
    1.0719867423e-02    9.4094773438e+04
    1.0729864240e-02    9.4032398438e+04
    1.0739715770e-02    9.3972750000e+04
    1.0749756359e-02    9.3913507812e+04
    1.0759668425e-02    9.3856242188e+04
    1.0769778863e-02    9.3798476562e+04
    1.0779743083e-02    9.3741476562e+04
    1.0789894499e-02    9.3682914062e+04
    1.0799869895e-02    9.3625320312e+04
    1.0809648782e-02    9.3569195312e+04
    1.0819953866e-02    9.3510460938e+04
    1.0829669423e-02    9.3455367188e+04
    1.0839906521e-02    9.3397320312e+04
    1.0849906132e-02    9.3340960938e+04
    1.0859651491e-02    9.3285976562e+04
    1.0869919322e-02    9.3227906250e+04
    1.0879920796e-02    9.3171156250e+04
    1.0889640078e-02    9.3115562500e+04
    1.0899886489e-02    9.3056125000e+04
    1.0909836739e-02    9.2997312500e+04
    1.0919898748e-02    9.2937289062e+04
    1.0929648764e-02    9.2879460938e+04
    1.0939934291e-02    9.2819710938e+04
    1.0949901305e-02    9.2764148438e+04
    1.0959967040e-02    9.2710843750e+04
    1.0969677009e-02    9.2661585938e+04
    1.0979909450e-02    9.2610851562e+04
    1.0989774950e-02    9.2561164062e+04
    1.0999710299e-02    9.2508929688e+04
    1.1009708047e-02    9.2454132812e+04
    1.1019760743e-02    9.2397343750e+04
    1.1029850692e-02    9.2340250000e+04
    1.1039988138e-02    9.2283867188e+04
    1.1049691588e-02    9.2229937500e+04
    1.1059912853e-02    9.2172789062e+04
    1.1069717817e-02    9.2117656250e+04
    1.1079555377e-02    9.2063062500e+04
    1.1089903302e-02    9.2008523438e+04
    1.1099826545e-02    9.1958429688e+04
    1.1109802872e-02    9.1908476562e+04
    1.1119799688e-02    9.1856476562e+04
    1.1129864492e-02    9.1801179688e+04
    1.1139966547e-02    9.1744101562e+04
    1.1149627157e-02    9.1689648438e+04
    1.1159793474e-02    9.1635117188e+04
    1.1169538833e-02    9.1584851562e+04
    1.1179802939e-02    9.1533617188e+04
    1.1189612560e-02    9.1484101562e+04
    1.1199960485e-02    9.1429351562e+04
    1.1209857650e-02    9.1375500000e+04
    1.1219769716e-02    9.1321117188e+04
    1.1229795404e-02    9.1267781250e+04
    1.1239755899e-02    9.1216648438e+04
    1.1249774136e-02    9.1166601562e+04
    1.1259841733e-02    9.1115937500e+04
    1.1269961484e-02    9.1063039062e+04
    1.1279624887e-02    9.1011523438e+04
    1.1289813556e-02    9.0956820312e+04
    1.1299963109e-02    9.0904437500e+04
    1.1309672147e-02    9.0855898438e+04
    1.1319971643e-02    9.0805085938e+04
    1.1329811066e-02    9.0754562500e+04
    1.1339601129e-02    9.0702648438e+04
    1.1349977925e-02    9.0647773438e+04
    1.1359917000e-02    9.0597570312e+04
    1.1369849555e-02    9.0548125000e+04
    1.1379837990e-02    9.0498976562e+04
    1.1389785446e-02    9.0447742188e+04
    1.1399729177e-02    9.0395804688e+04
    1.1409725063e-02    9.0344226562e+04
    1.1419771239e-02    9.0294398438e+04
    1.1429871432e-02    9.0245007812e+04
    1.1439975351e-02    9.0194898438e+04
    1.1449566111e-02    9.0145726562e+04
    1.1459733360e-02    9.0093414062e+04
    1.1469880119e-02    9.0042664062e+04
    1.1479569599e-02    8.9995132812e+04
    1.1489763856e-02    8.9945031250e+04
    1.1499499902e-02    8.9895906250e+04
    1.1509750038e-02    8.9844164062e+04
    1.1519527063e-02    8.9795648438e+04
    1.1529815383e-02    8.9745156250e+04
    1.1539549567e-02    8.9697382812e+04
    1.1549834162e-02    8.9646195312e+04
    1.1559525505e-02    8.9598000000e+04
    1.1569671333e-02    8.9548031250e+04
    1.1579587124e-02    8.9499789062e+04
    1.1589741334e-02    8.9449820312e+04
    1.1599539779e-02    8.9401226562e+04
    1.1609925888e-02    8.9350218750e+04
    1.1619914323e-02    8.9301367188e+04
    1.1629946530e-02    8.9252976562e+04
    1.1639984325e-02    8.9203937500e+04
    1.1649986729e-02    8.9155023438e+04
    1.1659914628e-02    8.9106992188e+04
    1.1669725180e-02    8.9059335938e+04
    1.1679708026e-02    8.9011039062e+04
    1.1689757928e-02    8.8962273438e+04
    1.1699762195e-02    8.8913718750e+04
    1.1709868908e-02    8.8865445312e+04
    1.1719868518e-02    8.8817523438e+04
    1.1729964986e-02    8.8769007812e+04
    1.1739918962e-02    8.8721351562e+04
    1.1749917641e-02    8.8673273438e+04
    1.1759964749e-02    8.8625539062e+04
    1.1769949459e-02    8.8578429688e+04
    1.1779856868e-02    8.8531406250e+04
    1.1789881624e-02    8.8483804688e+04
    1.1799936183e-02    8.8436054688e+04
    1.1809832416e-02    8.8388312500e+04
    1.1819832027e-02    8.8340281250e+04
    1.1829817668e-02    8.8293210938e+04
    1.1839880608e-02    8.8245937500e+04
    1.1849842034e-02    8.8200085938e+04
    1.1859844439e-02    8.8154835938e+04
    1.1869872920e-02    8.8109281250e+04
    1.1879928410e-02    8.8063273438e+04
    1.1889978312e-02    8.8016804688e+04
    1.1899990030e-02    8.7969960938e+04
    1.1909909546e-02    8.7922906250e+04
    1.1919955723e-02    8.7875625000e+04
    1.1929862201e-02    8.7829539062e+04
    1.1939856224e-02    8.7783289062e+04
    1.1949911714e-02    8.7737031250e+04
    1.1959797703e-02    8.7691914062e+04
    1.1969969608e-02    8.7645601562e+04
    1.1979952455e-02    8.7600085938e+04
    1.1989985593e-02    8.7554257812e+04
    1.1999810115e-02    8.7509882812e+04
    1.2009919621e-02    8.7463851562e+04
    1.2019813061e-02    8.7418804688e+04
    1.2029981241e-02    8.7372460938e+04
    1.2039943598e-02    8.7327265625e+04
    1.2049920857e-02    8.7282078125e+04
    1.2059946544e-02    8.7236820312e+04
    1.2069961987e-02    8.7191609375e+04
    1.2079795823e-02    8.7147687500e+04
    1.2089868076e-02    8.7102929688e+04
    1.2099966407e-02    8.7058648438e+04
    1.2109847739e-02    8.7015484375e+04
    1.2119977735e-02    8.6971554688e+04
    1.2129912153e-02    8.6928570312e+04
    1.2139821425e-02    8.6885914062e+04
    1.2149783783e-02    8.6842414062e+04
    1.2159993872e-02    8.6797468750e+04
    1.2169979513e-02    8.6753250000e+04
    1.2179986574e-02    8.6708570312e+04
    1.2189772911e-02    8.6665476562e+04
    1.2199826539e-02    8.6621242188e+04
    1.2209876440e-02    8.6577765625e+04
    1.2219964527e-02    8.6535046875e+04
    1.2229819782e-02    8.6493523438e+04
    1.2239923701e-02    8.6451242188e+04
    1.2249806896e-02    8.6409367188e+04
    1.2259960175e-02    8.6365820312e+04
    1.2269874103e-02    8.6323195312e+04
    1.2279791757e-02    8.6280531250e+04
    1.2289991602e-02    8.6237218750e+04
    1.2299948372e-02    8.6195578125e+04
    1.2309904210e-02    8.6154179688e+04
    1.2319888920e-02    8.6112640625e+04
    1.2329892255e-02    8.6071031250e+04
    1.2339891866e-02    8.6029195312e+04
    1.2349903584e-02    8.5987414062e+04
    1.2359946966e-02    8.5945835938e+04
    1.2369987555e-02    8.5904507812e+04
    1.2379777618e-02    8.5864429688e+04
    1.2389849871e-02    8.5823218750e+04
    1.2399931438e-02    8.5782000000e+04
    1.2409750372e-02    8.5742023438e+04
    1.2419835664e-02    8.5701085938e+04
    1.2429955415e-02    8.5660234375e+04
    1.2439810671e-02    8.5620609375e+04
    1.2449925765e-02    8.5580031250e+04
    1.2459814548e-02    8.5540250000e+04
    1.2469966896e-02    8.5499570312e+04
    1.2479854748e-02    8.5460281250e+04
    1.2489765882e-02    8.5421062500e+04
    1.2499950826e-02    8.5380945312e+04
    1.2509869412e-02    8.5341992188e+04
    1.2519789860e-02    8.5302960938e+04
    1.2529745698e-02    8.5263937500e+04
    1.2539958581e-02    8.5223796875e+04
    1.2549911626e-02    8.5185015625e+04
    1.2559876777e-02    8.5146539062e+04
    1.2569862418e-02    8.5107968750e+04
    1.2579845265e-02    8.5069695312e+04
    1.2589835562e-02    8.5031570312e+04
    1.2599840760e-02    8.4993523438e+04
    1.2609854341e-02    8.4955492188e+04
    1.2619866058e-02    8.4917593750e+04
    1.2629896402e-02    8.4879718750e+04
    1.2639936060e-02    8.4841867188e+04
    1.2649975717e-02    8.4804203125e+04
    1.2659762055e-02    8.4767625000e+04
    1.2669823132e-02    8.4730335938e+04
    1.2679891661e-02    8.4693125000e+04
    1.2689958327e-02    8.4655953125e+04
    1.2699773535e-02    8.4619937500e+04
    1.2709859759e-02    8.4583109375e+04
    1.2719953433e-02    8.4546476562e+04
    1.2729790993e-02    8.4510875000e+04
    1.2739896774e-02    8.4474367188e+04
    1.2749745511e-02    8.4438843750e+04
    1.2759862468e-02    8.4402500000e+04
    1.2769986875e-02    8.4366273438e+04
    1.2779857963e-02    8.4331109375e+04
    1.2789989822e-02    8.4295328125e+04
    1.2799868360e-02    8.4260445312e+04
    1.2809756212e-02    8.4225617188e+04
    1.2819912285e-02    8.4190304688e+04
    1.2829808518e-02    8.4155789062e+04
    1.2839968316e-02    8.4120460938e+04
    1.2849875726e-02    8.4086515625e+04
    1.2859788723e-02    8.4052250000e+04
    1.2869967148e-02    8.4017500000e+04
    1.2879885733e-02    8.3983828125e+04
    1.2889809906e-02    8.3950101562e+04
    1.2899738736e-02    8.3916828125e+04
    1.2909934856e-02    8.3882601562e+04
    1.2919872999e-02    8.3849351562e+04
    1.2929813005e-02    8.3816085938e+04
    1.2939755805e-02    8.3783023438e+04
    1.2949969620e-02    8.3749390625e+04
    1.2959927320e-02    8.3716757812e+04
    1.2969885953e-02    8.3684257812e+04
    1.2979845516e-02    8.3651914062e+04
    1.2989802286e-02    8.3619617188e+04
    1.2999765575e-02    8.3587343750e+04
    1.3009995222e-02    8.3554562500e+04
    1.3019964099e-02    8.3522859375e+04
    1.3029936701e-02    8.3491359375e+04
    1.3039915822e-02    8.3460031250e+04
    1.3049898669e-02    8.3428687500e+04
    1.3059881516e-02    8.3397390625e+04
    1.3069865294e-02    8.3366375000e+04
    1.3079849072e-02    8.3335492188e+04
    1.3089831918e-02    8.3304742188e+04
    1.3099813834e-02    8.3274046875e+04
    1.3109796681e-02    8.3243289062e+04
    1.3119778596e-02    8.3212632812e+04
    1.3129760511e-02    8.3182507812e+04
    1.3139743358e-02    8.3152632812e+04
    1.3149988838e-02    8.3121875000e+04
    1.3159972616e-02    8.3092085938e+04
    1.3169957325e-02    8.3062445312e+04
    1.3179942034e-02    8.3033132812e+04
    1.3189927675e-02    8.3004000000e+04
    1.3199913315e-02    8.2974859375e+04
    1.3209900819e-02    8.2946125000e+04
    1.3219889253e-02    8.2917335938e+04
    1.3229877688e-02    8.2888617188e+04
    1.3239867054e-02    8.2860062500e+04
    1.3249855489e-02    8.2831617188e+04
    1.3259844854e-02    8.2803343750e+04
    1.3269833289e-02    8.2775171875e+04
    1.3279822655e-02    8.2747187500e+04
    1.3289812952e-02    8.2719406250e+04
    1.3299803250e-02    8.2691695312e+04
    1.3309795409e-02    8.2664210938e+04
    1.3319786638e-02    8.2636976562e+04
    1.3329778798e-02    8.2609898438e+04
    1.3339771889e-02    8.2582945312e+04
    1.3349764980e-02    8.2556031250e+04
    1.3359758072e-02    8.2529062500e+04
    1.3369752094e-02    8.2502492188e+04
    1.3379746117e-02    8.2476226562e+04
    1.3389741071e-02    8.2449875000e+04
    1.3399998657e-02    8.2422992188e+04
    1.3409994543e-02    8.2396812500e+04
    1.3419989496e-02    8.2370781250e+04
    1.3429985382e-02    8.2345140625e+04
    1.3439981267e-02    8.2319625000e+04
    1.3449979015e-02    8.2294117188e+04
    1.3459976763e-02    8.2268781250e+04
    1.3469977304e-02    8.2243960938e+04
    1.3479981571e-02    8.2219140625e+04
    1.3489988633e-02    8.2194078125e+04
    1.3499999419e-02    8.2169265625e+04
    1.3509745710e-02    8.2145445312e+04
    1.3519754633e-02    8.2120929688e+04
    1.3529761694e-02    8.2096515625e+04
    1.3539768755e-02    8.2072382812e+04
    1.3549774885e-02    8.2048382812e+04
    1.3559781015e-02    8.2024359375e+04
    1.3569789939e-02    8.2000593750e+04
    1.3579801656e-02    8.1976765625e+04
    1.3589815237e-02    8.1953156250e+04
    1.3599827886e-02    8.1929703125e+04
    1.3609840535e-02    8.1906578125e+04
    1.3619853184e-02    8.1883625000e+04
    1.3629865833e-02    8.1860867188e+04
    1.3639878482e-02    8.1838273438e+04
    1.3649891131e-02    8.1815710938e+04
    1.3659904711e-02    8.1793554688e+04
    1.3669918291e-02    8.1771539062e+04
    1.3679932803e-02    8.1749742188e+04
    1.3689946383e-02    8.1727976562e+04
    1.3699960895e-02    8.1706179688e+04
    1.3709974475e-02    8.1684507812e+04
    1.3719988056e-02    8.1663039062e+04
    1.3729738072e-02    8.1642296875e+04
    1.3739752583e-02    8.1621078125e+04
    1.3749767095e-02    8.1599851562e+04
    1.3759781606e-02    8.1578695312e+04
    1.3769796118e-02    8.1557679688e+04
    1.3779810630e-02    8.1536843750e+04
    1.3789825141e-02    8.1516070312e+04
    1.3799839653e-02    8.1495390625e+04
    1.3809854165e-02    8.1475015625e+04
    1.3819869608e-02    8.1454648438e+04
    1.3829884119e-02    8.1434578125e+04
    1.3839899562e-02    8.1415132812e+04
    1.3849915005e-02    8.1395804688e+04
    1.3859929517e-02    8.1376195312e+04
    1.3869944960e-02    8.1357179688e+04
    1.3879959472e-02    8.1338023438e+04
    1.3889974914e-02    8.1318437500e+04
    1.3899990357e-02    8.1299546875e+04
    1.3909742236e-02    8.1281320312e+04
    1.3919757679e-02    8.1262195312e+04
    1.3929773122e-02    8.1243851562e+04
    1.3939788565e-02    8.1225164062e+04
    1.3949804008e-02    8.1206554688e+04
    1.3959819451e-02    8.1188679688e+04
    1.3969835825e-02    8.1170601562e+04
    1.3979851268e-02    8.1152984375e+04
    1.3989866711e-02    8.1135140625e+04
    1.3999882154e-02    8.1117625000e+04
    1.4009898528e-02    8.1100187500e+04
    1.4019914903e-02    8.1082859375e+04
    1.4029930346e-02    8.1065718750e+04
    1.4039946720e-02    8.1048718750e+04
    1.4049963094e-02    8.1031804688e+04
    1.4059979469e-02    8.1014976562e+04
    1.4069995843e-02    8.0998375000e+04
    1.4079747722e-02    8.0982398438e+04
    1.4089764096e-02    8.0965992188e+04
    1.4099780470e-02    8.0949734375e+04
    1.4109796844e-02    8.0933742188e+04
    1.4119814150e-02    8.0917914062e+04
    1.4129830524e-02    8.0901898438e+04
    1.4139846899e-02    8.0886070312e+04
    1.4149863273e-02    8.0871046875e+04
    1.4159880579e-02    8.0855843750e+04
    1.4169896953e-02    8.0839882812e+04
    1.4179914258e-02    8.0825031250e+04
    1.4189930633e-02    8.0810382812e+04
    1.4199947938e-02    8.0794609375e+04
    1.4209965244e-02    8.0780226562e+04
    1.4219982550e-02    8.0766265625e+04
    1.4229999855e-02    8.0751140625e+04
    1.4239752665e-02    8.0737390625e+04
    1.4249769971e-02    8.0723593750e+04
    1.4259787276e-02    8.0709250000e+04
    1.4269805513e-02    8.0695609375e+04
    1.4279822819e-02    8.0681875000e+04
    1.4289841056e-02    8.0668078125e+04
    1.4299858361e-02    8.0654367188e+04
    1.4309876598e-02    8.0641031250e+04
    1.4319894835e-02    8.0627976562e+04
    1.4329913072e-02    8.0614679688e+04
    1.4339930378e-02    8.0601648438e+04
    1.4349948615e-02    8.0589117188e+04
    1.4359966852e-02    8.0576570312e+04
    1.4369986020e-02    8.0563968750e+04
    1.4379740693e-02    8.0551773438e+04
    1.4389759861e-02    8.0539570312e+04
    1.4399779961e-02    8.0527375000e+04
    1.4409799129e-02    8.0515140625e+04
    1.4419818297e-02    8.0503250000e+04
    1.4429837465e-02    8.0491375000e+04
    1.4439856634e-02    8.0479515625e+04
    1.4449876733e-02    8.0467976562e+04
    1.4459895901e-02    8.0456710938e+04
    1.4469916001e-02    8.0445390625e+04
    1.4479937032e-02    8.0433843750e+04
    1.4489958063e-02    8.0422742188e+04
    1.4499979094e-02    8.0412414062e+04
    1.4509736560e-02    8.0401835938e+04
    1.4519758523e-02    8.0390695312e+04
    1.4529779553e-02    8.0380781250e+04
    1.4539800584e-02    8.0370296875e+04
    1.4549821615e-02    8.0359375000e+04
    1.4559843577e-02    8.0349960938e+04
    1.4569866471e-02    8.0340156250e+04
    1.4579888433e-02    8.0329781250e+04
    1.4589910395e-02    8.0320109375e+04
    1.4599933289e-02    8.0310570312e+04
    1.4609956183e-02    8.0300914062e+04
    1.4619979076e-02    8.0291484375e+04
    1.4629738405e-02    8.0282554688e+04
    1.4639761299e-02    8.0273250000e+04
    1.4649785124e-02    8.0264023438e+04
    1.4659808017e-02    8.0255085938e+04
    1.4669831842e-02    8.0246242188e+04
    1.4679855667e-02    8.0237554688e+04
    1.4689878561e-02    8.0229125000e+04
    1.4699902385e-02    8.0220585938e+04
    1.4709926210e-02    8.0212335938e+04
    1.4719950035e-02    8.0204179688e+04
    1.4729974791e-02    8.0196101562e+04
    1.4739999548e-02    8.0188187500e+04
    1.4749760740e-02    8.0180492188e+04
    1.4759786427e-02    8.0172679688e+04
    1.4769811183e-02    8.0165070312e+04
    1.4779835939e-02    8.0157382812e+04
    1.4789861627e-02    8.0150062500e+04
    1.4799887314e-02    8.0142710938e+04
    1.4809913002e-02    8.0135703125e+04
    1.4819938689e-02    8.0128734375e+04
    1.4829964377e-02    8.0121218750e+04
    1.4839990065e-02    8.0114414062e+04
    1.4849753119e-02    8.0108484375e+04
    1.4859779738e-02    8.0101914062e+04
    1.4869806357e-02    8.0095171875e+04
    1.4879832976e-02    8.0089335938e+04
    1.4889859594e-02    8.0082914062e+04
    1.4899887145e-02    8.0076140625e+04
    1.4909913763e-02    8.0071234375e+04
    1.4919942245e-02    8.0065445312e+04
    1.4929969795e-02    8.0058601562e+04
    1.4939997345e-02    8.0053632812e+04
    1.4949761331e-02    8.0048734375e+04
    1.4959789813e-02    8.0042648438e+04
    1.4969817363e-02    8.0037445312e+04
    1.4979845844e-02    8.0032828125e+04
    1.4989875257e-02    8.0027656250e+04
    1.4999903738e-02    8.0022882812e+04
    1.5009932220e-02    8.0018156250e+04
    1.5019961633e-02    8.0013210938e+04
    1.5029990114e-02    8.0009195312e+04
    1.5039755963e-02    8.0005226562e+04
    1.5049785376e-02    8.0001164062e+04
    1.5059815720e-02    7.9996984375e+04
    1.5069845133e-02    7.9992523438e+04
    1.5079875477e-02    7.9988640625e+04
    1.5089905821e-02    7.9985046875e+04
    1.5099936165e-02    7.9982273438e+04
    1.5109966509e-02    7.9979257812e+04
    1.5119996853e-02    7.9976328125e+04
    1.5129763633e-02    7.9973195312e+04
    1.5139794908e-02    7.9969921875e+04
    1.5149826184e-02    7.9966929688e+04
    1.5159857459e-02    7.9964562500e+04
    1.5169888735e-02    7.9962500000e+04
    1.5179920942e-02    7.9960007812e+04
    1.5189953148e-02    7.9957539062e+04
    1.5199984424e-02    7.9955328125e+04
    1.5209753066e-02    7.9952812500e+04
    1.5219785273e-02    7.9949718750e+04
    1.5229817480e-02    7.9947773438e+04
    1.5239849687e-02    7.9945789062e+04
    1.5249882825e-02    7.9943429688e+04
    1.5259915031e-02    7.9942718750e+04
    1.5269948170e-02    7.9942484375e+04
    1.5279981308e-02    7.9941593750e+04
    1.5289750881e-02    7.9941914062e+04
    1.5299784020e-02    7.9942859375e+04
    1.5309818089e-02    7.9942734375e+04
    1.5319851227e-02    7.9943226562e+04
    1.5329885297e-02    7.9943500000e+04
    1.5339919366e-02    7.9943593750e+04
    1.5349953435e-02    7.9943953125e+04
    1.5359987505e-02    7.9944359375e+04
    1.5369758010e-02    7.9944835938e+04
    1.5379792079e-02    7.9945492188e+04
    1.5389827080e-02    7.9946460938e+04
    1.5399862081e-02    7.9947695312e+04
    1.5409896150e-02    7.9949320312e+04
    1.5419931151e-02    7.9951140625e+04
    1.5429967083e-02    7.9953234375e+04
    1.5439737588e-02    7.9955515625e+04
    1.5449773520e-02    7.9958132812e+04
    1.5459808521e-02    7.9961007812e+04
    1.5469844453e-02    7.9964007812e+04
    1.5479880385e-02    7.9967070312e+04
    1.5489916317e-02    7.9970054688e+04
    1.5499952249e-02    7.9973125000e+04
    1.5509988181e-02    7.9976468750e+04
    1.5519759618e-02    7.9979898438e+04
    1.5529796481e-02    7.9983125000e+04
    1.5539832413e-02    7.9986273438e+04
    1.5549869277e-02    7.9990015625e+04
    1.5559906140e-02    7.9993875000e+04
    1.5569943003e-02    7.9997539062e+04
    1.5579979867e-02    8.0002195312e+04
    1.5589752235e-02    8.0007273438e+04
    1.5599790029e-02    8.0011867188e+04
    1.5609826893e-02    8.0017304688e+04
    1.5619863756e-02    8.0023953125e+04
    1.5629902482e-02    8.0030039062e+04
    1.5639940277e-02    8.0036414062e+04
    1.5649976209e-02    8.0043929688e+04
    1.5659751371e-02    8.0051007812e+04
    1.5669789165e-02    8.0058343750e+04
    1.5679826960e-02    8.0066359375e+04
    1.5689864755e-02    8.0074187500e+04
    1.5699902549e-02    8.0082062500e+04
    1.5709940344e-02    8.0090093750e+04
    1.5719980001e-02    8.0098054688e+04
    1.5729753301e-02    8.0105953125e+04
    1.5739792958e-02    8.0114453125e+04
    1.5749830753e-02    8.0123304688e+04
    1.5759870410e-02    8.0132664062e+04
    1.5769908205e-02    8.0142406250e+04
    1.5779947862e-02    8.0152460938e+04
    1.5789987519e-02    8.0162882812e+04
    1.5799762681e-02    8.0173367188e+04
    1.5809802338e-02    8.0184523438e+04
    1.5819840133e-02    8.0195945312e+04
    1.5829879791e-02    8.0207562500e+04
    1.5839919448e-02    8.0219273438e+04
    1.5849959105e-02    8.0231125000e+04
    1.5859998763e-02    8.0243335938e+04
    1.5869775787e-02    8.0255593750e+04
    1.5879815444e-02    8.0268265625e+04
    1.5889855102e-02    8.0280945312e+04
    1.5899894759e-02    8.0294140625e+04
    1.5909936279e-02    8.0307960938e+04
    1.5919975936e-02    8.0321859375e+04
    1.5929752961e-02    8.0335812500e+04
    1.5939792618e-02    8.0351054688e+04
    1.5949834138e-02    8.0366226562e+04
    1.5959873796e-02    8.0381062500e+04
    1.5969915316e-02    8.0396640625e+04
    1.5979954973e-02    8.0412570312e+04
    1.5989996493e-02    8.0428281250e+04
    1.5999773517e-02    8.0444257812e+04
    1.6009815037e-02    8.0461273438e+04
    1.6019856557e-02    8.0478156250e+04
    1.6029896215e-02    8.0495382812e+04
    1.6039937735e-02    8.0513250000e+04
    1.6049979255e-02    8.0531429688e+04
    1.6059756279e-02    8.0549617188e+04
    1.6069797799e-02    8.0568695312e+04
    1.6079839319e-02    8.0587796875e+04
    1.6089882702e-02    8.0607078125e+04
    1.6099924222e-02    8.0626648438e+04
    1.6109965742e-02    8.0646562500e+04
    1.6119742766e-02    8.0666437500e+04
    1.6129784286e-02    8.0687195312e+04
    1.6139825806e-02    8.0708273438e+04
    1.6149869189e-02    8.0729656250e+04
    1.6159910709e-02    8.0751382812e+04
    1.6169952229e-02    8.0773468750e+04
    1.6179993749e-02    8.0795851562e+04
    1.6189772636e-02    8.0817828125e+04
    1.6199816018e-02    8.0840484375e+04
    1.6209857538e-02    8.0863273438e+04
    1.6219900921e-02    8.0886445312e+04
    1.6229942441e-02    8.0910156250e+04
    1.6239985824e-02    8.0934187500e+04
    1.6249762848e-02    8.0957867188e+04
    1.6259806231e-02    8.0982843750e+04
    1.6269849613e-02    8.1008343750e+04
    1.6279891133e-02    8.1033796875e+04
    1.6289934516e-02    8.1059492188e+04
    1.6299977899e-02    8.1085718750e+04
    1.6309754923e-02    8.1110984375e+04
    1.6319798306e-02    8.1136671875e+04
    1.6329841688e-02    8.1162828125e+04
    1.6339885071e-02    8.1188960938e+04
    1.6349926591e-02    8.1214984375e+04
    1.6359969974e-02    8.1241734375e+04
    1.6369748861e-02    8.1268375000e+04
    1.6379792243e-02    8.1296031250e+04
    1.6389835626e-02    8.1324343750e+04
    1.6399879009e-02    8.1353375000e+04
    1.6409922391e-02    8.1382867188e+04
    1.6419963911e-02    8.1412890625e+04
    1.6429742798e-02    8.1442562500e+04
    1.6439786181e-02    8.1473171875e+04
    1.6449829563e-02    8.1503945312e+04
    1.6459872946e-02    8.1534828125e+04
    1.6469916329e-02    8.1565757812e+04
    1.6479959711e-02    8.1596757812e+04
    1.6489738598e-02    8.1626968750e+04
    1.6499781981e-02    8.1658093750e+04
    1.6509825364e-02    8.1689390625e+04
    1.6519868746e-02    8.1720898438e+04
    1.6529912129e-02    8.1752687500e+04
    1.6539955512e-02    8.1784812500e+04
    1.6549998894e-02    8.1817320312e+04
    1.6559777781e-02    8.1849320312e+04
    1.6569821164e-02    8.1882523438e+04
    1.6579864547e-02    8.1916101562e+04
    1.6589907929e-02    8.1950054688e+04
    1.6599951312e-02    8.1984296875e+04
    1.6609994695e-02    8.2018789062e+04
    1.6619773582e-02    8.2052710938e+04
    1.6629816964e-02    8.2087828125e+04
    1.6639860347e-02    8.2123062500e+04
    1.6649903730e-02    8.2158609375e+04
    1.6659947112e-02    8.2194703125e+04
    1.6669990495e-02    8.2230960938e+04
    1.6679769382e-02    8.2266343750e+04
    1.6689812765e-02    8.2303226562e+04
    1.6699856147e-02    8.2340429688e+04
    1.6709899530e-02    8.2377648438e+04
    1.6719942912e-02    8.2415351562e+04
    1.6729984432e-02    8.2453500000e+04
    1.6739763319e-02    8.2490710938e+04
    1.6749806702e-02    8.2529148438e+04
    1.6759850085e-02    8.2567960938e+04
    1.6769893467e-02    8.2607046875e+04
    1.6779936850e-02    8.2646484375e+04
    1.6789980233e-02    8.2686328125e+04
    1.6799759120e-02    8.2725406250e+04
    1.6809802502e-02    8.2765843750e+04
    1.6819845885e-02    8.2806656250e+04
    1.6829889268e-02    8.2847835938e+04
    1.6839932650e-02    8.2889390625e+04
    1.6849974170e-02    8.2931257812e+04
    1.6859753057e-02    8.2972343750e+04
    1.6869796440e-02    8.3014882812e+04
    1.6879839823e-02    8.3057781250e+04
    1.6889883205e-02    8.3101078125e+04
    1.6899926588e-02    8.3144804688e+04
    1.6909969971e-02    8.3188960938e+04
    1.6919748858e-02    8.3232367188e+04
    1.6929790378e-02    8.3277390625e+04
    1.6939833760e-02    8.3322875000e+04
    1.6949877143e-02    8.3368851562e+04
    1.6959920526e-02    8.3415343750e+04
    1.6969963908e-02    8.3462335938e+04
    1.6979742795e-02    8.3508648438e+04
    1.6989786178e-02    8.3556781250e+04
    1.6999829561e-02    8.3605296875e+04
    1.7009874806e-02    8.3654226562e+04
    1.7019918188e-02    8.3703875000e+04
    1.7029961571e-02    8.3754179688e+04
    1.7039742321e-02    8.3803546875e+04
    1.7049785703e-02    8.3854875000e+04
    1.7059830949e-02    8.3907007812e+04
    1.7069874331e-02    8.3959679688e+04
    1.7079919577e-02    8.4012867188e+04
    1.7089964822e-02    8.4066750000e+04
    1.7099745572e-02    8.4119726562e+04
    1.7109788954e-02    8.4174570312e+04
    1.7119834200e-02    8.4229945312e+04
    1.7129879445e-02    8.4285820312e+04
    1.7139924690e-02    8.4342125000e+04
    1.7149971798e-02    8.4398898438e+04
    1.7159752548e-02    8.4454656250e+04
    1.7169797793e-02    8.4512421875e+04
    1.7179844901e-02    8.4570757812e+04
    1.7189890146e-02    8.4629640625e+04
    1.7199937254e-02    8.4689062500e+04
    1.7209984362e-02    8.4748976562e+04
    1.7219766974e-02    8.4807718750e+04
    1.7229814082e-02    8.4868375000e+04
    1.7239861190e-02    8.4929281250e+04
    1.7249908298e-02    8.4990453125e+04
    1.7259957269e-02    8.5051953125e+04
    1.7269739881e-02    8.5112250000e+04
    1.7279788852e-02    8.5174703125e+04
    1.7289837822e-02    8.5237804688e+04
    1.7299886793e-02    8.5301718750e+04
    1.7309935763e-02    8.5367265625e+04
    1.7319986597e-02    8.5460742188e+04
    1.7329771072e-02    8.6417101562e+04
    1.7339821905e-02    9.5067757812e+04
    1.7349872738e-02    9.5378187500e+04
    1.7359923571e-02    9.5914101562e+04
    1.7369974405e-02    9.5894031250e+04
    1.7379762605e-02    9.5785382812e+04
    1.7389815301e-02    9.5712968750e+04
    1.7399866134e-02    9.5665773438e+04
    1.7409918830e-02    9.5624937500e+04
    1.7419969663e-02    9.5578429688e+04
    1.7429757863e-02    9.5525625000e+04
    1.7439810559e-02    9.5469632812e+04
    1.7449861392e-02    9.5414101562e+04
    1.7459914088e-02    9.5366156250e+04
    1.7469966784e-02    9.5321906250e+04
    1.7479756847e-02    9.5277656250e+04
    1.7489811406e-02    9.5231695312e+04
    1.7499865964e-02    9.5187875000e+04
    1.7509918660e-02    9.5143820312e+04
    1.7519975081e-02    9.5098351562e+04
    1.7529767007e-02    9.5055085938e+04
    1.7539823428e-02    9.5013335938e+04
    1.7549879849e-02    9.4972773438e+04
    1.7559936270e-02    9.4932226562e+04
    1.7569992691e-02    9.4892031250e+04
    1.7579786479e-02    9.4854148438e+04
    1.7589844763e-02    9.4816054688e+04
    1.7599904910e-02    9.4778726562e+04
    1.7609963194e-02    9.4741726562e+04
    1.7619758844e-02    9.4706773438e+04
    1.7629820853e-02    9.4671398438e+04
    1.7639884725e-02    9.4636812500e+04
    1.7649948597e-02    9.4602593750e+04
    1.7659746110e-02    9.4570281250e+04
    1.7669809982e-02    9.4537585938e+04
    1.7679875717e-02    9.4505585938e+04
    1.7689939588e-02    9.4474085938e+04
    1.7699738964e-02    9.4444164062e+04
    1.7709804699e-02    9.4414070312e+04
    1.7719870433e-02    9.4384531250e+04
    1.7729938030e-02    9.4355656250e+04
    1.7739741132e-02    9.4328148438e+04
    1.7749808729e-02    9.4300570312e+04
    1.7759876326e-02    9.4273023438e+04
    1.7769949511e-02    9.4247382812e+04
    1.7779756337e-02    9.4221710938e+04
    1.7789829522e-02    9.4196132812e+04
    1.7799904570e-02    9.4172007812e+04
    1.7809977755e-02    9.4147664062e+04
    1.7819788307e-02    9.4124539062e+04
    1.7829867080e-02    9.4101367188e+04
    1.7839943990e-02    9.4078523438e+04
    1.7849758267e-02    9.4056789062e+04
    1.7859835178e-02    9.4034851562e+04
    1.7869915813e-02    9.4013273438e+04
    1.7879735678e-02    9.3992976562e+04
    1.7889818177e-02    9.3972648438e+04
    1.7899904400e-02    9.3953023438e+04
    1.7909992486e-02    9.3934210938e+04
    1.7919812351e-02    9.3916539062e+04
    1.7929902300e-02    9.3899085938e+04
    1.7939992249e-02    9.3881960938e+04
    1.7949817702e-02    9.3865554688e+04
    1.7959913239e-02    9.3848976562e+04
    1.7969742417e-02    9.3833210938e+04
    1.7979837954e-02    9.3817343750e+04
    1.7989937216e-02    9.3802070312e+04
    1.7999766394e-02    9.3787710938e+04
    1.8009865656e-02    9.3773437500e+04
    1.8019968644e-02    9.3759742188e+04
    1.8029807135e-02    9.3746960938e+04
    1.8039913848e-02    9.3734382812e+04
    1.8049754202e-02    9.3722531250e+04
    1.8059860915e-02    9.3710898438e+04
    1.8069969490e-02    9.3699281250e+04
    1.8079815432e-02    9.3688804688e+04
    1.8089925870e-02    9.3678023438e+04
    1.8099777400e-02    9.3668085938e+04
    1.8109891564e-02    9.3658914062e+04
    1.8119743094e-02    9.3649476562e+04
    1.8129866570e-02    9.3640976562e+04
    1.8139986321e-02    9.3633054688e+04
    1.8149843439e-02    9.3625335938e+04
    1.8159970641e-02    9.3617992188e+04
    1.8169829622e-02    9.3611375000e+04
    1.8179958686e-02    9.3604968750e+04
    1.8189821392e-02    9.3599281250e+04
    1.8199954182e-02    9.3593664062e+04
    1.8209826201e-02    9.3588492188e+04
    1.8219962716e-02    9.3583679688e+04
    1.8229834735e-02    9.3579539062e+04
    1.8239974976e-02    9.3575710938e+04
    1.8249846995e-02    9.3572406250e+04
    1.8259989098e-02    9.3569468750e+04
    1.8269868568e-02    9.3566992188e+04
    1.8279749900e-02    9.3564898438e+04
    1.8289901316e-02    9.3563164062e+04
    1.8299788237e-02    9.3561898438e+04
    1.8309939653e-02    9.3560976562e+04
    1.8319828436e-02    9.3560695312e+04
    1.8329985440e-02    9.3560960938e+04
    1.8339877948e-02    9.3561601562e+04
    1.8349772319e-02    9.3562570312e+04
    1.8359934911e-02    9.3564007812e+04
    1.8369833007e-02    9.3565687500e+04
    1.8379999325e-02    9.3567914062e+04
    1.8389897421e-02    9.3570445312e+04
    1.8399799243e-02    9.3573367188e+04
    1.8409971148e-02    9.3576773438e+04
    1.8419876695e-02    9.3580148438e+04
    1.8429785967e-02    9.3584273438e+04
    1.8439965323e-02    9.3588851562e+04
    1.8449878320e-02    9.3593429688e+04
    1.8459795043e-02    9.3598851562e+04
    1.8469983712e-02    9.3604695312e+04
    1.8479902297e-02    9.3610562500e+04
    1.8489824608e-02    9.3617039062e+04
    1.8499745056e-02    9.3624007812e+04
    1.8509939313e-02    9.3631460938e+04
    1.8519867212e-02    9.3638851562e+04
    1.8529796973e-02    9.3646523438e+04
    1.8539996818e-02    9.3654718750e+04
    1.8549930304e-02    9.3663054688e+04
    1.8559861928e-02    9.3671960938e+04
    1.8569797277e-02    9.3681632812e+04
    1.8579736352e-02    9.3691937500e+04
    1.8589945510e-02    9.3702773438e+04
    1.8599890172e-02    9.3713429688e+04
    1.8609836698e-02    9.3724070312e+04
    1.8619781360e-02    9.3734554688e+04
    1.8629731610e-02    9.3744906250e+04
    1.8639950082e-02    9.3755679688e+04
    1.8649902195e-02    9.3766476562e+04
    1.8659858033e-02    9.3777687500e+04
    1.8669813871e-02    9.3789437500e+04
    1.8679773435e-02    9.3801687500e+04
    1.8689736724e-02    9.3814335938e+04
    1.8699968234e-02    9.3827695312e+04
    1.8709933385e-02    9.3840929688e+04
    1.8719900399e-02    9.3854226562e+04
    1.8729871139e-02    9.3867335938e+04
    1.8739843741e-02    9.3880210938e+04
    1.8749816343e-02    9.3892742188e+04
    1.8759792671e-02    9.3904992188e+04
    1.8769772723e-02    9.3916914062e+04
    1.8779752776e-02    9.3928757812e+04
    1.8789736554e-02    9.3940468750e+04
    1.8799992278e-02    9.3952476562e+04
    1.8809977919e-02    9.3964187500e+04
    1.8819967285e-02    9.3975804688e+04
    1.8829958513e-02    9.3987335938e+04
    1.8839953467e-02    9.3998789062e+04
    1.8849952146e-02    9.4010117188e+04
    1.8859952688e-02    9.4021289062e+04
    1.8869953230e-02    9.4032320312e+04
    1.8879957497e-02    9.4043281250e+04
    1.8889959902e-02    9.4054117188e+04
    1.8899967894e-02    9.4064835938e+04
    1.8909977749e-02    9.4075523438e+04
    1.8919993192e-02    9.4086289062e+04
    1.8929738551e-02    9.4096812500e+04
    1.8939757720e-02    9.4107664062e+04
    1.8949775025e-02    9.4118632812e+04
    1.8959797919e-02    9.4129601562e+04
    1.8969822675e-02    9.4140289062e+04
    1.8979849294e-02    9.4150429688e+04
    1.8989881501e-02    9.4159742188e+04
    1.8999913707e-02    9.4167875000e+04
    1.9009949639e-02    9.4174507812e+04
    1.9019989297e-02    9.4179679688e+04
    1.9029757008e-02    9.4183531250e+04
    1.9039800391e-02    9.4186851562e+04
    1.9049847499e-02    9.4190125000e+04
    1.9059894606e-02    9.4194101562e+04
    1.9069947302e-02    9.4199093750e+04
    1.9079728052e-02    9.4204906250e+04
    1.9089786336e-02    9.4211531250e+04
    1.9099848345e-02    9.4218289062e+04
    1.9109912217e-02    9.4224781250e+04
    1.9119977951e-02    9.4230812500e+04
    1.9129771739e-02    9.4236312500e+04
    1.9139839336e-02    9.4241843750e+04
    1.9149912521e-02    9.4247476562e+04
    1.9159989432e-02    9.4253320312e+04
    1.9169794396e-02    9.4259164062e+04
    1.9179876894e-02    9.4265210938e+04
    1.9189959392e-02    9.4271132812e+04
    1.9199769944e-02    9.4276718750e+04
    1.9209856167e-02    9.4282335938e+04
    1.9219944254e-02    9.4287914062e+04
    1.9229764119e-02    9.4293398438e+04
    1.9239857793e-02    9.4299101562e+04
    1.9249955192e-02    9.4304906250e+04
    1.9259780645e-02    9.4310648438e+04
    1.9269879907e-02    9.4316585938e+04
    1.9279981032e-02    9.4322406250e+04
    1.9289810210e-02    9.4327976562e+04
    1.9299913198e-02    9.4333687500e+04
    1.9309746101e-02    9.4339226562e+04
    1.9319854677e-02    9.4344945312e+04
    1.9329965115e-02    9.4350789062e+04
    1.9339803606e-02    9.4356593750e+04
    1.9349915907e-02    9.4362523438e+04
    1.9359758124e-02    9.4368218750e+04
    1.9369876012e-02    9.4374093750e+04
    1.9379995763e-02    9.4379992188e+04
    1.9389843568e-02    9.4385726562e+04
    1.9399968907e-02    9.4391664062e+04
    1.9409824163e-02    9.4397476562e+04
    1.9419955090e-02    9.4403468750e+04
    1.9429808483e-02    9.4409289062e+04
    1.9439930096e-02    9.4415273438e+04
[...]
    1.1513997614e-01    1.0122003906e+05
    1.1514981091e-01    1.0122002344e+05
    1.1515995860e-01    1.0122002344e+05
    1.1516980082e-01    1.0122002344e+05
    1.1517994851e-01    1.0122000781e+05
    1.1518979073e-01    1.0122000781e+05
    1.1519993842e-01    1.0122000000e+05
    1.1520977318e-01    1.0122000000e+05
    1.1521992087e-01    1.0122000000e+05
    1.1522976309e-01    1.0121999219e+05
    1.1523991078e-01    1.0121999219e+05
    1.1524975300e-01    1.0121997656e+05
    1.1525990069e-01    1.0121997656e+05
    1.1526974291e-01    1.0121997656e+05
    1.1527989060e-01    1.0121996875e+05
    1.1528972536e-01    1.0121996094e+05
    1.1529987305e-01    1.0121996094e+05
    1.1530971527e-01    1.0121996094e+05
    1.1531986296e-01    1.0121994531e+05
    1.1532970518e-01    1.0121993750e+05
    1.1533985287e-01    1.0121992969e+05
    1.1535000056e-01    1.0121992969e+05
    1.1535984278e-01    1.0121992969e+05
    1.1536999047e-01    1.0121991406e+05
    1.1537982523e-01    1.0121991406e+05
    1.1538997293e-01    1.0121991406e+05
    1.1539981514e-01    1.0121991406e+05
    1.1540996283e-01    1.0121990625e+05
    1.1541980505e-01    1.0121990625e+05
    1.1542995274e-01    1.0121989844e+05
    1.1543979496e-01    1.0121989844e+05
    1.1544994265e-01    1.0121988281e+05
    1.1545977741e-01    1.0121987500e+05
    1.1546992511e-01    1.0121986719e+05
    1.1547976732e-01    1.0121985156e+05
    1.1548991501e-01    1.0121985156e+05
    1.1549975723e-01    1.0121984375e+05
    1.1550990492e-01    1.0121984375e+05
    1.1551973969e-01    1.0121983594e+05
    1.1552988738e-01    1.0121983594e+05
    1.1553972960e-01    1.0121983594e+05
    1.1554987729e-01    1.0121983594e+05
    1.1555971950e-01    1.0121982031e+05
    1.1556986719e-01    1.0121982031e+05
    1.1557970941e-01    1.0121981250e+05
    1.1558985710e-01    1.0121981250e+05
    1.1559969187e-01    1.0121980469e+05
    1.1560983956e-01    1.0121980469e+05
    1.1561998725e-01    1.0121978906e+05
    1.1562982947e-01    1.0121978906e+05
    1.1563997716e-01    1.0121978125e+05
    1.1564981937e-01    1.0121978125e+05
    1.1565996706e-01    1.0121977344e+05
    1.1566980928e-01    1.0121977344e+05
    1.1567995697e-01    1.0121977344e+05
    1.1568979174e-01    1.0121975781e+05
    1.1569993943e-01    1.0121975000e+05
    1.1570978165e-01    1.0121975000e+05
    1.1571992934e-01    1.0121974219e+05
    1.1572977155e-01    1.0121972656e+05
    1.1573991925e-01    1.0121972656e+05
    1.1574976146e-01    1.0121972656e+05
    1.1575990915e-01    1.0121971875e+05
    1.1576974392e-01    1.0121971875e+05
    1.1577989161e-01    1.0121971094e+05
    1.1578973383e-01    1.0121971094e+05
    1.1579988152e-01    1.0121971094e+05
    1.1580972373e-01    1.0121969531e+05
    1.1581987143e-01    1.0121969531e+05
    1.1582970619e-01    1.0121968750e+05
    1.1583985388e-01    1.0121967969e+05
    1.1584969610e-01    1.0121967969e+05
    1.1585984379e-01    1.0121966406e+05
    1.1586999148e-01    1.0121966406e+05
    1.1587983370e-01    1.0121966406e+05
    1.1588998139e-01    1.0121965625e+05
    1.1589982361e-01    1.0121965625e+05
    1.1590997130e-01    1.0121964844e+05
    1.1591980606e-01    1.0121964844e+05
    1.1592995375e-01    1.0121964844e+05
    1.1593979597e-01    1.0121963281e+05
    1.1594994366e-01    1.0121962500e+05
    1.1595978588e-01    1.0121962500e+05
    1.1596993357e-01    1.0121961719e+05
    1.1597977579e-01    1.0121960156e+05
    1.1598992348e-01    1.0121960156e+05
    1.1599975824e-01    1.0121960156e+05
    1.1600990593e-01    1.0121959375e+05
    1.1601974815e-01    1.0121959375e+05
    1.1602989584e-01    1.0121958594e+05
    1.1603973806e-01    1.0121958594e+05
    1.1604988575e-01    1.0121958594e+05
    1.1605972797e-01    1.0121957031e+05
    1.1606987566e-01    1.0121957031e+05
    1.1607971042e-01    1.0121956250e+05
    1.1608985811e-01    1.0121955469e+05
    1.1609970033e-01    1.0121955469e+05
    1.1610984802e-01    1.0121953906e+05
    1.1611999571e-01    1.0121953906e+05
    1.1612983793e-01    1.0121953906e+05
    1.1613998562e-01    1.0121953125e+05
    1.1614982039e-01    1.0121952344e+05
    1.1615996808e-01    1.0121952344e+05
    1.1616981030e-01    1.0121952344e+05
    1.1617995799e-01    1.0121952344e+05
    1.1618980020e-01    1.0121950781e+05
    1.1619994789e-01    1.0121950000e+05
    1.1620979011e-01    1.0121950000e+05
    1.1621993780e-01    1.0121949219e+05
    1.1622977257e-01    1.0121949219e+05
    1.1623992026e-01    1.0121947656e+05
    1.1624976248e-01    1.0121947656e+05
    1.1625991017e-01    1.0121947656e+05
    1.1626975238e-01    1.0121946875e+05
    1.1627990007e-01    1.0121946094e+05
    1.1628974229e-01    1.0121946094e+05
    1.1629988998e-01    1.0121946094e+05
    1.1630972475e-01    1.0121944531e+05
    1.1631987244e-01    1.0121944531e+05
    1.1632971466e-01    1.0121943750e+05
    1.1633986235e-01    1.0121942969e+05
    1.1634970456e-01    1.0121942969e+05
    1.1635985225e-01    1.0121941406e+05
    1.1636999995e-01    1.0121941406e+05
    1.1637984216e-01    1.0121941406e+05
    1.1638998985e-01    1.0121940625e+05
    1.1639982462e-01    1.0121939844e+05
    1.1640997231e-01    1.0121939844e+05
    1.1641981453e-01    1.0121939844e+05
    1.1642996222e-01    1.0121938281e+05
    1.1643980443e-01    1.0121938281e+05
    1.1644995213e-01    1.0121937500e+05
    1.1645978689e-01    1.0121937500e+05
    1.1646993458e-01    1.0121936719e+05
    1.1647977680e-01    1.0121935156e+05
    1.1648992449e-01    1.0121935156e+05
    1.1649976671e-01    1.0121935156e+05
    1.1650991440e-01    1.0121935156e+05
    1.1651975662e-01    1.0121934375e+05
    1.1652990431e-01    1.0121933594e+05
    1.1653973907e-01    1.0121933594e+05
    1.1654988676e-01    1.0121933594e+05
    1.1655972898e-01    1.0121933594e+05
    1.1656987667e-01    1.0121932031e+05
    1.1657971889e-01    1.0121931250e+05
    1.1658986658e-01    1.0121930469e+05
    1.1659970880e-01    1.0121930469e+05
    1.1660985649e-01    1.0121928906e+05
    1.1661969125e-01    1.0121928906e+05
    1.1662983894e-01    1.0121928906e+05
    1.1663998663e-01    1.0121928125e+05
    1.1664982885e-01    1.0121927344e+05
    1.1665997654e-01    1.0121927344e+05
    1.1666981876e-01    1.0121927344e+05
    1.1667996645e-01    1.0121927344e+05
    1.1668980867e-01    1.0121925781e+05
    1.1669995636e-01    1.0121925781e+05
    1.1670979112e-01    1.0121925000e+05
    1.1671993881e-01    1.0121924219e+05
    1.1672978103e-01    1.0121924219e+05
    1.1673992872e-01    1.0121922656e+05
    1.1674977094e-01    1.0121922656e+05
    1.1675991863e-01    1.0121922656e+05
    1.1676975340e-01    1.0121921875e+05
    1.1677990109e-01    1.0121921094e+05
    1.1678974330e-01    1.0121921094e+05
    1.1679989100e-01    1.0121921094e+05
    1.1680973321e-01    1.0121921094e+05
    1.1681988090e-01    1.0121919531e+05
    1.1682972312e-01    1.0121918750e+05
    1.1683987081e-01    1.0121918750e+05
    1.1684970558e-01    1.0121917969e+05
    1.1685985327e-01    1.0121917969e+05
    1.1686969548e-01    1.0121916406e+05
    1.1687984318e-01    1.0121916406e+05
    1.1688999087e-01    1.0121916406e+05
    1.1689983308e-01    1.0121915625e+05
    1.1690998077e-01    1.0121915625e+05
    1.1691982299e-01    1.0121914844e+05
    1.1692997068e-01    1.0121914844e+05
    1.1693980545e-01    1.0121914844e+05
    1.1694995314e-01    1.0121913281e+05
    1.1695979536e-01    1.0121913281e+05
    1.1696994305e-01    1.0121912500e+05
    1.1697978526e-01    1.0121911719e+05
    1.1698993295e-01    1.0121911719e+05
    1.1699977517e-01    1.0121910156e+05
    1.1700992286e-01    1.0121910156e+05
    1.1701975763e-01    1.0121910156e+05
    1.1702990532e-01    1.0121909375e+05
    1.1703974754e-01    1.0121909375e+05
    1.1704989523e-01    1.0121908594e+05
    1.1705973744e-01    1.0121908594e+05
    1.1706988513e-01    1.0121908594e+05
    1.1707972735e-01    1.0121907031e+05
    1.1708987504e-01    1.0121906250e+05
    1.1709970981e-01    1.0121906250e+05
    1.1710985750e-01    1.0121905469e+05
    1.1711969972e-01    1.0121905469e+05
    1.1712984741e-01    1.0121903906e+05
    1.1713999510e-01    1.0121903906e+05
    1.1714983732e-01    1.0121903906e+05
    1.1715998501e-01    1.0121903125e+05
    1.1716982722e-01    1.0121903125e+05
    1.1717997491e-01    1.0121902344e+05
    1.1718980968e-01    1.0121902344e+05
    1.1719995737e-01    1.0121902344e+05
    1.1720979959e-01    1.0121900781e+05
    1.1721994728e-01    1.0121900781e+05
    1.1722978950e-01    1.0121900000e+05
    1.1723993719e-01    1.0121899219e+05
    1.1724977195e-01    1.0121899219e+05
    1.1725991964e-01    1.0121897656e+05
    1.1726976186e-01    1.0121897656e+05
    1.1727990955e-01    1.0121897656e+05
    1.1728975177e-01    1.0121897656e+05
    1.1729989946e-01    1.0121896875e+05
    1.1730974168e-01    1.0121896094e+05
    1.1731988937e-01    1.0121896094e+05
    1.1732972413e-01    1.0121896094e+05
    1.1733987182e-01    1.0121894531e+05
    1.1734971404e-01    1.0121893750e+05
    1.1735986173e-01    1.0121893750e+05
    1.1736970395e-01    1.0121892969e+05
    1.1737985164e-01    1.0121892969e+05
    1.1738999933e-01    1.0121891406e+05
    1.1739984155e-01    1.0121891406e+05
    1.1740998924e-01    1.0121891406e+05
    1.1741982400e-01    1.0121890625e+05
    1.1742997169e-01    1.0121890625e+05
    1.1743981391e-01    1.0121889844e+05
    1.1744996160e-01    1.0121889844e+05
    1.1745980382e-01    1.0121889844e+05
    1.1746995151e-01    1.0121888281e+05
    1.1747979373e-01    1.0121887500e+05
    1.1748994142e-01    1.0121886719e+05
    1.1749977618e-01    1.0121886719e+05
    1.1750992388e-01    1.0121885156e+05
    1.1751976609e-01    1.0121885156e+05
    1.1752991378e-01    1.0121885156e+05
    1.1753975600e-01    1.0121885156e+05
    1.1754990369e-01    1.0121884375e+05
    1.1755974591e-01    1.0121883594e+05
    1.1756989360e-01    1.0121883594e+05
    1.1757972836e-01    1.0121883594e+05
    1.1758987606e-01    1.0121883594e+05
    1.1759971827e-01    1.0121882031e+05
    1.1760986596e-01    1.0121881250e+05
    1.1761970818e-01    1.0121881250e+05
    1.1762985587e-01    1.0121880469e+05
    1.1763969809e-01    1.0121880469e+05
    1.1764984578e-01    1.0121878906e+05
    1.1765999347e-01    1.0121878906e+05
    1.1766982824e-01    1.0121878906e+05
    1.1767997593e-01    1.0121878125e+05
    1.1768981814e-01    1.0121878125e+05
    1.1769996583e-01    1.0121877344e+05
    1.1770980805e-01    1.0121877344e+05
    1.1771995574e-01    1.0121877344e+05
    1.1772979796e-01    1.0121875781e+05
    1.1773994565e-01    1.0121875000e+05
    1.1774978042e-01    1.0121875000e+05
    1.1775992811e-01    1.0121874219e+05
    1.1776977032e-01    1.0121874219e+05
    1.1777991802e-01    1.0121872656e+05
    1.1778976023e-01    1.0121872656e+05
    1.1779990792e-01    1.0121872656e+05
    1.1780975014e-01    1.0121871875e+05
    1.1781989783e-01    1.0121871875e+05
    1.1782973260e-01    1.0121871094e+05
    1.1783988029e-01    1.0121871094e+05
    1.1784972250e-01    1.0121871094e+05
    1.1785987020e-01    1.0121869531e+05
    1.1786971241e-01    1.0121869531e+05
    1.1787986010e-01    1.0121868750e+05
    1.1788970232e-01    1.0121867969e+05
    1.1789985001e-01    1.0121867969e+05
    1.1790999770e-01    1.0121866406e+05
    1.1791983247e-01    1.0121866406e+05
    1.1792998016e-01    1.0121866406e+05
    1.1793982238e-01    1.0121865625e+05
    1.1794997007e-01    1.0121865625e+05
    1.1795981228e-01    1.0121864844e+05
    1.1796995997e-01    1.0121864844e+05
    1.1797979474e-01    1.0121864844e+05
    1.1798994988e-01    1.0121863281e+05
    1.1799978465e-01    1.0121863281e+05
    1.1800993234e-01    1.0121862500e+05
    1.1801977456e-01    1.0121862500e+05
    1.1802992225e-01    1.0121861719e+05
    1.1803976446e-01    1.0121860156e+05
    1.1804991215e-01    1.0121860156e+05
    1.1805974692e-01    1.0121860156e+05
    1.1806989461e-01    1.0121860156e+05
    1.1807973683e-01    1.0121859375e+05
    1.1808988452e-01    1.0121859375e+05
    1.1809972674e-01    1.0121858594e+05
    1.1810987443e-01    1.0121858594e+05
    1.1811971664e-01    1.0121857031e+05
    1.1812986434e-01    1.0121856250e+05
    1.1813969910e-01    1.0121855469e+05
    1.1814984679e-01    1.0121853906e+05
    1.1815999448e-01    1.0121853906e+05
    1.1816983670e-01    1.0121853125e+05
    1.1817998439e-01    1.0121852344e+05
    1.1818982661e-01    1.0121852344e+05
    1.1819997430e-01    1.0121852344e+05
    1.1820981652e-01    1.0121852344e+05
    1.1821996421e-01    1.0121852344e+05
    1.1822979897e-01    1.0121852344e+05
    1.1823994666e-01    1.0121852344e+05
    1.1824978888e-01    1.0121850781e+05
    1.1825993657e-01    1.0121850781e+05
    1.1826977879e-01    1.0121850000e+05
    1.1827992648e-01    1.0121850000e+05
    1.1828976870e-01    1.0121849219e+05
    1.1829991639e-01    1.0121847656e+05
    1.1830975115e-01    1.0121847656e+05
    1.1831989884e-01    1.0121847656e+05
    1.1832974106e-01    1.0121847656e+05
    1.1833988875e-01    1.0121847656e+05
    1.1834973097e-01    1.0121847656e+05
    1.1835987866e-01    1.0121847656e+05
    1.1836972088e-01    1.0121847656e+05
    1.1837986857e-01    1.0121847656e+05
    1.1838970333e-01    1.0121847656e+05
    1.1839985102e-01    1.0121847656e+05
    1.1840969324e-01    1.0121847656e+05
    1.1841984093e-01    1.0121846875e+05
    1.1842998862e-01    1.0121846094e+05
    1.1843983084e-01    1.0121846094e+05
    1.1844997853e-01    1.0121844531e+05
    1.1845982075e-01    1.0121843750e+05
    1.1846996844e-01    1.0121841406e+05
    1.1847980320e-01    1.0121841406e+05
    1.1848995090e-01    1.0121840625e+05
    1.1849979311e-01    1.0121839844e+05
    1.1850994080e-01    1.0121839844e+05
    1.1851978302e-01    1.0121839844e+05
    1.1852993071e-01    1.0121838281e+05
    1.1853977293e-01    1.0121838281e+05
    1.1854992062e-01    1.0121837500e+05
    1.1855975538e-01    1.0121836719e+05
    1.1856990308e-01    1.0121835156e+05
    1.1857974529e-01    1.0121835156e+05
    1.1858989298e-01    1.0121834375e+05
    1.1859973520e-01    1.0121833594e+05
    1.1860988289e-01    1.0121833594e+05
    1.1861972511e-01    1.0121832031e+05
    1.1862987280e-01    1.0121832031e+05
    1.1863970757e-01    1.0121832031e+05
    1.1864985526e-01    1.0121832031e+05
    1.1865969747e-01    1.0121832031e+05
    1.1866984516e-01    1.0121832031e+05
    1.1867999285e-01    1.0121832031e+05
    1.1868983507e-01    1.0121832031e+05
    1.1869998276e-01    1.0121831250e+05
    1.1870982498e-01    1.0121831250e+05
    1.1871997267e-01    1.0121830469e+05
    1.1872980744e-01    1.0121828906e+05
    1.1873995513e-01    1.0121828906e+05
    1.1874979734e-01    1.0121828906e+05
    1.1875994503e-01    1.0121828125e+05
    1.1876978725e-01    1.0121827344e+05
    1.1877993494e-01    1.0121827344e+05
    1.1878976971e-01    1.0121827344e+05
    1.1879991740e-01    1.0121827344e+05
    1.1880975962e-01    1.0121825781e+05
    1.1881990731e-01    1.0121825781e+05
    1.1882974952e-01    1.0121825000e+05
    1.1883989722e-01    1.0121824219e+05
    1.1884973943e-01    1.0121822656e+05
    1.1885988712e-01    1.0121822656e+05
    1.1886972189e-01    1.0121822656e+05
    1.1887986958e-01    1.0121821875e+05
    1.1888971180e-01    1.0121821875e+05
    1.1889985949e-01    1.0121821875e+05
    1.1890970170e-01    1.0121821875e+05
    1.1891984940e-01    1.0121821094e+05
    1.1892999709e-01    1.0121821094e+05
    1.1893983930e-01    1.0121819531e+05
    1.1894998699e-01    1.0121818750e+05
    1.1895982176e-01    1.0121817969e+05
    1.1896996945e-01    1.0121816406e+05
    1.1897981167e-01    1.0121816406e+05
    1.1898995936e-01    1.0121816406e+05
    1.1899980158e-01    1.0121816406e+05
    1.1900994927e-01    1.0121816406e+05
    1.1901979148e-01    1.0121816406e+05
    1.1902993917e-01    1.0121816406e+05
    1.1903977394e-01    1.0121816406e+05
    1.1904992163e-01    1.0121816406e+05
    1.1905976385e-01    1.0121816406e+05
    1.1906991154e-01    1.0121815625e+05
    1.1907975376e-01    1.0121814844e+05
    1.1908990145e-01    1.0121813281e+05
    1.1909974366e-01    1.0121812500e+05
    1.1910989136e-01    1.0121811719e+05
    1.1911972612e-01    1.0121810156e+05
    1.1912987381e-01    1.0121810156e+05
    1.1913971603e-01    1.0121809375e+05
    1.1914986372e-01    1.0121809375e+05
    1.1915970594e-01    1.0121809375e+05
    1.1916985363e-01    1.0121809375e+05
    1.1917969584e-01    1.0121809375e+05
    1.1918984354e-01    1.0121808594e+05
    1.1919999123e-01    1.0121808594e+05
    1.1920982599e-01    1.0121808594e+05
    1.1921997368e-01    1.0121808594e+05
    1.1922981590e-01    1.0121807031e+05
    1.1923996359e-01    1.0121806250e+05
    1.1924980581e-01    1.0121805469e+05
    1.1925995350e-01    1.0121803906e+05
    1.1926979572e-01    1.0121803906e+05
    1.1927994341e-01    1.0121803906e+05
    1.1928977817e-01    1.0121803906e+05
    1.1929992586e-01    1.0121803125e+05
    1.1930976808e-01    1.0121803125e+05
    1.1931991577e-01    1.0121803125e+05
    1.1932975799e-01    1.0121802344e+05
    1.1933990568e-01    1.0121802344e+05
    1.1934974790e-01    1.0121802344e+05
    1.1935989559e-01    1.0121800781e+05
    1.1936973035e-01    1.0121800781e+05
    1.1937987804e-01    1.0121800000e+05
    1.1938972026e-01    1.0121800000e+05
    1.1939986795e-01    1.0121799219e+05
    1.1940971017e-01    1.0121799219e+05
    1.1941985786e-01    1.0121797656e+05
    1.1942970008e-01    1.0121797656e+05
    1.1943984777e-01    1.0121797656e+05
    1.1944999546e-01    1.0121796875e+05
    1.1945983022e-01    1.0121796875e+05
    1.1946997792e-01    1.0121796094e+05
    1.1947982013e-01    1.0121796094e+05
    1.1948996782e-01    1.0121796094e+05
    1.1949981004e-01    1.0121794531e+05
    1.1950995773e-01    1.0121794531e+05
    1.1951979995e-01    1.0121793750e+05
    1.1952994764e-01    1.0121792969e+05
    1.1953978240e-01    1.0121792969e+05
    1.1954993010e-01    1.0121791406e+05
    1.1955977231e-01    1.0121791406e+05
    1.1956992000e-01    1.0121791406e+05
    1.1957976222e-01    1.0121791406e+05
    1.1958990991e-01    1.0121790625e+05
    1.1959975213e-01    1.0121789844e+05
    1.1960989982e-01    1.0121789844e+05
    1.1961973459e-01    1.0121789844e+05
    1.1962988228e-01    1.0121789844e+05
    1.1963972449e-01    1.0121788281e+05
    1.1964987218e-01    1.0121788281e+05
    1.1965971440e-01    1.0121787500e+05
    1.1966986209e-01    1.0121787500e+05
    1.1967970431e-01    1.0121786719e+05
    1.1968985200e-01    1.0121785156e+05
    1.1969999969e-01    1.0121785156e+05
    1.1970983446e-01    1.0121785156e+05
    1.1971998215e-01    1.0121785156e+05
    1.1972982436e-01    1.0121784375e+05
    1.1973997205e-01    1.0121784375e+05
    1.1974981427e-01    1.0121783594e+05
    1.1975996196e-01    1.0121783594e+05
    1.1976979673e-01    1.0121783594e+05
    1.1977995187e-01    1.0121782031e+05
    1.1978978664e-01    1.0121782031e+05
    1.1979993433e-01    1.0121781250e+05
    1.1980977654e-01    1.0121781250e+05
    1.1981992424e-01    1.0121780469e+05
    1.1982976645e-01    1.0121780469e+05
    1.1983991414e-01    1.0121778906e+05
    1.1984974891e-01    1.0121778906e+05
    1.1985989660e-01    1.0121778906e+05
    1.1986973882e-01    1.0121778125e+05
    1.1987988651e-01    1.0121778125e+05
    1.1988972872e-01    1.0121777344e+05
    1.1989987642e-01    1.0121777344e+05
    1.1990971863e-01    1.0121777344e+05
    1.1991986632e-01    1.0121775781e+05
    1.1992970109e-01    1.0121775781e+05
    1.1993984878e-01    1.0121775000e+05
    1.1994999647e-01    1.0121775000e+05
    1.1995983869e-01    1.0121774219e+05
    1.1996998638e-01    1.0121774219e+05
    1.1997982860e-01    1.0121772656e+05
    1.1998997629e-01    1.0121772656e+05
    1.1999981850e-01    1.0121772656e+05
endcurve
