Curveplot
LS-DYNA keyword deck by LS-PrePost                          
Time
Pressure
Defined Connection
Pressure @ 9 #pts=12001
* Minval=     7.5761507812e+04 at time=         0.0127699869
* Maxval=     3.0061506250e+05 at time=         0.0047499025
    0.0000000000e+00    1.0120000000e+05
    9.9485323517e-06    1.0120000000e+05
    1.9897421225e-05    1.0120000000e+05
    2.9987359085e-05    1.0120000000e+05
    3.9957587433e-05    1.0120000000e+05
    4.9946385843e-05    1.0120000000e+05
    5.9991551097e-05    1.0120000000e+05
    6.9962465204e-05    1.0120000000e+05
    7.9935569374e-05    1.0120000000e+05
    8.9994748123e-05    1.0120000000e+05
    9.9937955383e-05    1.0120000000e+05
    1.0995466437e-04    1.0120000000e+05
    1.1996396643e-04    1.0120000000e+05
    1.2995616999e-04    1.0120000000e+05
    1.3999607472e-04    1.0120000000e+05
    1.4992381330e-04    1.0120000000e+05
    1.5995846479e-04    1.0120000000e+05
    1.6993863392e-04    1.0120000000e+05
    1.7993355868e-04    1.0120000000e+05
    1.8993651611e-04    1.0120000000e+05
    1.9994015747e-04    1.0120000000e+05
    2.0993674116e-04    1.0120000000e+05
    2.1991907852e-04    1.0120000000e+05
    2.2996698681e-04    1.0120000000e+05
    2.3998788674e-04    1.0120000000e+05
    2.4997413857e-04    1.0120000000e+05
    2.5991807343e-04    1.0120000000e+05
    2.6999608963e-04    1.0120000000e+05
    2.7992666583e-04    1.0120000000e+05
    2.8998075868e-04    1.0120000000e+05
    2.9995955992e-04    1.0120000000e+05
    3.0994432746e-04    1.0120000000e+05
    3.1993203447e-04    1.0120000000e+05
    3.2992125489e-04    1.0120000000e+05
    3.3990875818e-04    1.0120000000e+05
    3.4999576746e-04    1.0120000000e+05
    3.5997995292e-04    1.0120000000e+05
    3.6995849223e-04    1.0120000000e+05
    3.7992699072e-04    1.0120000000e+05
    3.8999255048e-04    1.0120000000e+05
    3.9994457620e-04    1.0120000000e+05
    4.0999049088e-04    1.0120000000e+05
    4.1991623584e-04    1.0120000000e+05
    4.2993400712e-04    1.0120000000e+05
    4.3993728468e-04    1.0120000000e+05
    4.4992336188e-04    1.0120000000e+05
    4.5989057980e-04    1.0120000000e+05
    4.6994743752e-04    1.0120000000e+05
    4.7998587252e-04    1.0120000000e+05
    4.8988772323e-04    1.0120000000e+05
    4.9999402836e-04    1.0120000000e+05
    5.0996005302e-04    1.0120000000e+05
    5.1989621716e-04    1.0120000000e+05
    5.2992330166e-04    1.0120000000e+05
    5.3992093308e-04    1.0120000000e+05
    5.4988719057e-04    1.0120000000e+05
    5.5994186550e-04    1.0120000000e+05
    5.6996219791e-04    1.0120000000e+05
    5.7994580129e-04    1.0120000000e+05
    5.8989576064e-04    1.0120000000e+05
    5.9993297327e-04    1.0120000000e+05
    6.0993159423e-04    1.0120000000e+05
    6.1988970265e-04    1.0120000000e+05
    6.2993442407e-04    1.0120000000e+05
    6.3993420918e-04    1.0120000000e+05
    6.4989202656e-04    1.0120000000e+05
    6.5993593307e-04    1.0120000000e+05
    6.6993333166e-04    1.0120000000e+05
    6.7988195224e-04    1.0120000000e+05
    6.8991590524e-04    1.0120000000e+05
    6.9989782060e-04    1.0120000000e+05
    7.0996471914e-04    1.0120000000e+05
    7.1998027852e-04    1.0120000000e+05
    7.2994048242e-04    1.0120000000e+05
    7.3998502921e-04    1.0120000000e+05
    7.4997195043e-04    1.0120000000e+05
    7.5989874313e-04    1.0120000000e+05
    7.6990859816e-04    1.0120000000e+05
    7.7999942005e-04    1.0120000000e+05
    7.8988278983e-04    1.0120000000e+05
    7.9999724403e-04    1.0120000000e+05
    8.0989580601e-04    1.0120000000e+05
    8.1987574231e-04    1.0120000000e+05
    8.2993827527e-04    1.0120000000e+05
    8.3993020235e-04    1.0120000000e+05
    8.4984872956e-04    1.0120000000e+05
    8.5984810721e-04    1.0120000000e+05
    8.6992827710e-04    1.0120000000e+05
    8.7992975023e-04    1.0120000000e+05
    8.8985508773e-04    1.0120000000e+05
    8.9986022795e-04    1.0120000000e+05
    9.0994627681e-04    1.0120000000e+05
    9.1994955437e-04    1.0120000000e+05
    9.2986720847e-04    1.0120000000e+05
    9.3986350112e-04    1.0120000000e+05
    9.4993936364e-04    1.0120000000e+05
    9.5992581919e-04    1.0120000000e+05
    9.6999108791e-04    1.0120000000e+05
    9.7996345721e-04    1.0120000000e+05
    9.8983978387e-04    1.0120000000e+05
    9.9996186327e-04    1.0120000000e+05
    1.0099929059e-03    1.0120000000e+05
    1.0199240642e-03    1.0120000000e+05
    1.0299314745e-03    1.0120000000e+05
    1.0398352752e-03    1.0120000000e+05
    1.0499967029e-03    1.0120000000e+05
    1.0598701192e-03    1.0120000000e+05
    1.0698179249e-03    1.0120000000e+05
    1.0798411677e-03    1.0120000000e+05
    1.0899405461e-03    1.0120000000e+05
    1.0999278165e-03    1.0120000000e+05
    1.1099902913e-03    1.0120000000e+05
    1.1199369328e-03    1.0120000000e+05
    1.1299577309e-03    1.0120000000e+05
    1.1398587376e-03    1.0120000000e+05
    1.1498329695e-03    1.0120000000e+05
    1.1598808924e-03    1.0120000000e+05
    1.1698048329e-03    1.0120000000e+05
    1.1798016494e-03    1.0120000000e+05
    1.1898722732e-03    1.0120000000e+05
    1.1998136761e-03    1.0120000000e+05
    1.2098184088e-03    1.0120000000e+05
    1.2199042831e-03    1.0120000000e+05
    1.2298591901e-03    1.0120000000e+05
    1.2398868566e-03    1.0120000000e+05
    1.2499880977e-03    1.0120000000e+05
    1.2599510374e-03    1.0120000000e+05
    1.2699866202e-03    1.0120000000e+05
    1.2798795942e-03    1.0120000000e+05
    1.2898436980e-03    1.0120000000e+05
    1.2998800958e-03    1.0120000000e+05
    1.3099898351e-03    1.0120000000e+05
    1.3199513778e-03    1.0120000000e+05
    1.3299848652e-03    1.0120000000e+05
    1.3398660813e-03    1.0120000000e+05
    1.3498181943e-03    1.0120000000e+05
    1.3598409714e-03    1.0120000000e+05
    1.3699374394e-03    1.0120000000e+05
    1.3798744185e-03    1.0120000000e+05
    1.3898841571e-03    1.0120000000e+05
    1.3999656076e-03    1.0120000000e+05
    1.4098823303e-03    1.0120000000e+05
    1.4198700665e-03    1.0120000000e+05
    1.4299297472e-03    1.0120000000e+05
    1.4398202766e-03    1.0120000000e+05
    1.4497813536e-03    1.0120000000e+05
    1.4598157723e-03    1.0120000000e+05
    1.4699220192e-03    1.0120000000e+05
    1.4798516640e-03    1.0120000000e+05
    1.4898539521e-03    1.0120000000e+05
    1.4999271370e-03    1.0120000000e+05
    1.5098194126e-03    1.0120000000e+05
    1.5197825851e-03    1.0120000000e+05
    1.5298170038e-03    1.0120000000e+05
    1.5399240656e-03    1.0120000000e+05
    1.5498430002e-03    1.0120000000e+05
    1.5598329483e-03    1.0120000000e+05
    1.5698948409e-03    1.0120000000e+05
    1.5797623200e-03    1.0120000000e+05
    1.5899700811e-03    1.0120000000e+05
    1.5999816824e-03    1.0120000000e+05
    1.6097921180e-03    1.0120000000e+05
    1.6199483071e-03    1.0120000000e+05
    1.6299015842e-03    1.0120000000e+05
    1.6399266897e-03    1.0120000000e+05
    1.6497381730e-03    1.0120000000e+05
    1.6599006485e-03    1.0120000000e+05
    1.6698610270e-03    1.0120000000e+05
    1.6798936995e-03    1.0120000000e+05
    1.6899999464e-03    1.0120000000e+05
    1.6998888459e-03    1.0120000000e+05
    1.7098496901e-03    1.0120000000e+05
    1.7198832938e-03    1.0120000000e+05
    1.7299905885e-03    1.0120000000e+05
    1.7398729688e-03    1.0120000000e+05
    1.7498268280e-03    1.0120000000e+05
    1.7598542618e-03    1.0120000000e+05
    1.7699557357e-03    1.0120000000e+05
    1.7798233312e-03    1.0120000000e+05
    1.7897633370e-03    1.0120000000e+05
    1.7997768009e-03    1.0120000000e+05
    1.8098647706e-03    1.0120000000e+05
    1.8197101308e-03    1.0120000000e+05
    1.8299488584e-03    1.0120000000e+05
    1.8399427645e-03    1.0120000000e+05
    1.8496857956e-03    1.0120000000e+05
    1.8598285969e-03    1.0120000000e+05
    1.8697179621e-03    1.0120000000e+05
    1.8796816003e-03    1.0120000000e+05
    1.8897202099e-03    1.0120000000e+05
    1.8998304149e-03    1.0120000000e+05
    1.9096811302e-03    1.0120000000e+05
    1.9199510571e-03    1.0120000000e+05
    1.9299554406e-03    1.0120000000e+05
    1.9396878779e-03    1.0120000000e+05
    1.9498446491e-03    1.0120000000e+05
    1.9597269129e-03    1.0120000000e+05
    1.9696848467e-03    1.0120000000e+05
    1.9797196146e-03    1.0120000000e+05
    1.9898330793e-03    1.0120000000e+05
    1.9996610936e-03    1.0120000000e+05
    2.0099328831e-03    1.0120000000e+05
    2.0199164283e-03    1.0120000000e+05
    2.0299786702e-03    1.0120000000e+05
    2.0397440530e-03    1.0120000000e+05
    2.0499650855e-03    1.0120000000e+05
    2.0598811097e-03    1.0120000000e+05
    2.0698811859e-03    1.0120000000e+05
    2.0799615886e-03    1.0120000000e+05
    2.0897313952e-03    1.0120000000e+05
    2.0999738481e-03    1.0120000000e+05
    2.1099029109e-03    1.0120000000e+05
    2.1199120674e-03    1.0120000000e+05
    2.1295980550e-03    1.0120000000e+05
    2.1397697274e-03    1.0120000000e+05
    2.1496147383e-03    1.0120000000e+05
    2.1599554457e-03    1.0120000000e+05
    2.1699662320e-03    1.0120000000e+05
    2.1796361543e-03    1.0120000000e+05
    2.1898106206e-03    1.0120000000e+05
    2.1996449213e-03    1.0120000000e+05
    2.2099909838e-03    1.0120000000e+05
    2.2199733648e-03    1.0120000000e+05
    2.2295671515e-03    1.0120000000e+05
    2.2396398708e-03    1.0120000000e+05
    2.2497479804e-03    1.0120000000e+05
    2.2598931100e-03    1.0120000000e+05
    2.2696135566e-03    1.0120000000e+05
    2.2798092104e-03    1.0120000000e+05
    2.2899906617e-03    1.0120000000e+05
    2.2997611668e-03    1.0120000000e+05
    2.3099719547e-03    1.0120000000e+05
    2.3197480477e-03    1.0120000000e+05
    2.3299583700e-03    1.0120000000e+05
    2.3397512268e-03    1.0120000000e+05
    2.3499566596e-03    1.0120000000e+05
    2.3597027175e-03    1.0120000000e+05
    2.3699051235e-03    1.0120000000e+05
    2.3796730675e-03    1.0120000000e+05
    2.3898500949e-03    1.0120000000e+05
    2.3996063974e-03    1.0120000000e+05
    2.4097957648e-03    1.0120000000e+05
    2.4195301812e-03    1.0120000000e+05
    2.4297153577e-03    1.0120000000e+05
    2.4399179965e-03    1.0120000000e+05
    2.4496186525e-03    1.0120000000e+05
    2.4597418960e-03    1.0120000000e+05
    2.4699058849e-03    1.0120000000e+05
    2.4795893114e-03    1.0120000000e+05
    2.4897414260e-03    1.0120000000e+05
    2.4999852758e-03    1.0120000000e+05
    2.5097203907e-03    1.0120000000e+05
    2.5199630763e-03    1.0120000000e+05
    2.5297892280e-03    1.0120000000e+05
    2.5396368001e-03    1.0120000000e+05
    2.5499435142e-03    1.0120000000e+05
    2.5597966742e-03    1.0120000000e+05
    2.5696754456e-03    1.0120000000e+05
    2.5795616675e-03    1.0120000000e+05
    2.5899470784e-03    1.0120000000e+05
    2.5998691563e-03    1.0120000000e+05
    2.6097879745e-03    1.0120000000e+05
    2.6197093539e-03    1.0120000000e+05
    2.6296265423e-03    1.0120000000e+05
    2.6395432651e-03    1.0120000000e+05
    2.6499023661e-03    1.0120000000e+05
    2.6597725227e-03    1.0120000000e+05
    2.6696398854e-03    1.0120000000e+05
    2.6799128391e-03    1.0120000000e+05
    2.6897108182e-03    1.0120000000e+05
    2.6999050751e-03    1.0120000000e+05
    2.7096113190e-03    1.0120000000e+05
    2.7196940500e-03    1.0120000000e+05
    2.7297041379e-03    1.0120000000e+05
    2.7396476362e-03    1.0120000000e+05
    2.7499510907e-03    1.0120000000e+05
    2.7597567532e-03    1.0120000000e+05
    2.7699181810e-03    1.0120000000e+05
    2.7795895003e-03    1.0120000000e+05
    2.7896128595e-03    1.0120000000e+05
    2.7999754529e-03    1.0120000000e+05
    2.8098584153e-03    1.0120000000e+05
    2.8196743224e-03    1.0120000000e+05
    2.8298280668e-03    1.0120000000e+05
    2.8399107978e-03    1.0120000000e+05
    2.8499234468e-03    1.0120000000e+05
    2.8598662466e-03    1.0120000000e+05
    2.8697380330e-03    1.0120000000e+05
    2.8799341526e-03    1.0120000000e+05
    2.8896701988e-03    1.0120000000e+05
    2.8997252230e-03    1.0120000000e+05
    2.9097096995e-03    1.0120000000e+05
    2.9196236283e-03    1.0120000000e+05
    2.9298453592e-03    1.0120000000e+05
    2.9399932828e-03    1.0120000000e+05
    2.9496958014e-03    1.0120000000e+05
    2.9596996028e-03    1.0120000000e+05
    2.9699984007e-03    1.0120000000e+05
    2.9798566829e-03    1.0120000000e+05
    2.9896441847e-03    1.0120000000e+05
    2.9997206293e-03    1.0120000000e+05
    3.0097228009e-03    1.0120000000e+05
    3.0196506996e-03    1.0120000000e+05
    3.0298558995e-03    1.0120000000e+05
    3.0399831012e-03    1.0120000000e+05
    3.0496874824e-03    1.0120000000e+05
    3.0596631113e-03    1.0120000000e+05
    3.0699025374e-03    1.0120000000e+05
    3.0797237996e-03    1.0120000000e+05
    3.0898044351e-03    1.0120000000e+05
    3.0998052098e-03    1.0120000000e+05
    3.1097261235e-03    1.0120000000e+05
    3.1198952347e-03    1.0120000000e+05
    3.1299800612e-03    1.0120000000e+05
    3.1399817672e-03    1.0120000000e+05
    3.1499008182e-03    1.0120000000e+05
    3.1597372144e-03    1.0120000000e+05
    3.1698048115e-03    1.0120000000e+05
    3.1797848642e-03    1.0120000000e+05
    3.1899858732e-03    1.0120000000e+05
    3.1997899059e-03    1.0120000000e+05
    3.2098102383e-03    1.0120000000e+05
    3.2197393011e-03    1.0120000000e+05
    3.2298734877e-03    1.0120000000e+05
    3.2399110496e-03    1.0120000000e+05
    3.2498519868e-03    1.0120000000e+05
    3.2599845435e-03    1.0120000000e+05
    3.2697296701e-03    1.0120000000e+05
    3.2799434848e-03    1.0120000000e+05
    3.2897698693e-03    1.0120000000e+05
    3.2997704111e-03    1.0120000000e+05
    3.3099355642e-03    1.0120000000e+05
    3.3199861646e-03    1.0120000000e+05
    3.3299217466e-03    1.0120000000e+05
    3.3397423103e-03    1.0120000000e+05
    3.3499682322e-03    1.0120000000e+05
    3.3598076552e-03    1.0120000000e+05
    3.3697776962e-03    1.0120000000e+05
    3.3798674121e-03    1.0120000000e+05
    3.3898185939e-03    1.0120000000e+05
    3.3998736180e-03    1.0120000000e+05
    3.4097800963e-03    1.0120000000e+05
    3.4197727218e-03    1.0120000000e+05
    3.4298384562e-03    1.0120000000e+05
    3.4399633296e-03    1.0120000000e+05
    3.4499084577e-03    1.0120000000e+05
    3.4598901402e-03    1.0120000000e+05
    3.4698925447e-03    1.0120000000e+05
    3.4798975103e-03    1.0120000000e+05
    3.4898857120e-03    1.0120000000e+05
    3.4998361953e-03    1.0120000000e+05
    3.5099210218e-03    1.0120000000e+05
    3.5199075937e-03    1.0120000000e+05
    3.5299491137e-03    1.0120000000e+05
    3.5399908666e-03    1.0120000000e+05
    3.5499697551e-03    1.0120000000e+05
    3.5599700641e-03    1.0120000000e+05
    3.5698700231e-03    1.0120000000e+05
    3.5799255129e-03    1.0120000000e+05
    3.5899069626e-03    1.0120000000e+05
    3.5999584943e-03    1.0120000000e+05
    3.6099066492e-03    1.0120000000e+05
    3.6198862363e-03    1.0120000000e+05
    3.6299673375e-03    1.0120000000e+05
    3.6399594974e-03    1.0120000000e+05
    3.6499558482e-03    1.0120000000e+05
    3.6599379964e-03    1.0120000000e+05
    3.6699585617e-03    1.0120000000e+05
    3.6799723748e-03    1.0120000000e+05
    3.6899053957e-03    1.0120000000e+05
    3.6998658907e-03    1.0120000000e+05
    3.7099672481e-03    1.0120000000e+05
    3.7198278587e-03    1.0120000000e+05
    3.7299448159e-03    1.0120000000e+05
    3.7398831919e-03    1.0120000000e+05
    3.7498837337e-03    1.0120000000e+05
    3.7598216441e-03    1.0120000000e+05
    3.7698238157e-03    1.0120000000e+05
    3.7799475249e-03    1.0120000000e+05
    3.7899403833e-03    1.0120000000e+05
    3.7998470943e-03    1.0120000000e+05
    3.8099947851e-03    1.0120000000e+05
    3.8198439870e-03    1.0120000000e+05
    3.8299357984e-03    1.0120000000e+05
    3.8399139885e-03    1.0120000000e+05
    3.8499354851e-03    1.0120000000e+05
    3.8598228712e-03    1.0120000000e+05
    3.8699668366e-03    1.0120000000e+05
    3.8799596950e-03    1.0120000000e+05
    3.8898051716e-03    1.0120000000e+05
    3.8998932578e-03    1.0120000000e+05
    3.9098444395e-03    1.0120000000e+05
    3.9198193699e-03    1.0120000000e+05
    3.9298702031e-03    1.0120000000e+05
    3.9399443194e-03    1.0120000000e+05
    3.9498633705e-03    1.0120000000e+05
    3.9598140866e-03    1.0120000000e+05
    3.9698011242e-03    1.0120000000e+05
    3.9798449725e-03    1.0120000000e+05
    3.9899130352e-03    1.0120000000e+05
    3.9998306893e-03    1.0120000000e+05
    4.0099634789e-03    1.0120000000e+05
    4.0199505165e-03    1.0120000000e+05
    4.0299603716e-03    1.0120000000e+05
    4.0399958380e-03    1.0120000000e+05
    4.0498771705e-03    1.0120000000e+05
    4.0599633940e-03    1.0120000000e+05
    4.0699257515e-03    1.0120000000e+05
    4.0798676200e-03    1.0120000000e+05
    4.0898602456e-03    1.0120000000e+05
    4.0999138728e-03    1.0120000000e+05
    4.1099260561e-03    1.0120000000e+05
    4.1198343970e-03    1.0120000000e+05
    4.1299243458e-03    1.0120000000e+05
    4.1398466565e-03    1.0120000000e+05
    4.1498220526e-03    1.0120000000e+05
    4.1599851102e-03    1.0120000000e+05
    4.1698063724e-03    1.0120000000e+05
    4.1798232123e-03    1.0120000000e+05
    4.1898884811e-03    1.0120000000e+05
    4.1997777298e-03    1.0120000000e+05
    4.2098723352e-03    1.0120000000e+05
    4.2198128067e-03    1.0120000000e+05
    4.2297667824e-03    1.0120000000e+05
    4.2399778031e-03    1.0120000000e+05
    4.2499965057e-03    1.0120000000e+05
    4.2597968131e-03    1.0120000000e+05
    4.2698592879e-03    1.0120000000e+05
    4.2799431831e-03    1.0120000000e+05
    4.2898193933e-03    1.0120000000e+05
    4.2999647558e-03    1.0120000000e+05
    4.3098828755e-03    1.0120000000e+05
    4.3198284693e-03    1.0120000000e+05
    4.3297996745e-03    1.0120000000e+05
    4.3397829868e-03    1.0120000000e+05
    4.3497872539e-03    1.0120000000e+05
    4.3598120101e-03    1.0120000000e+05
    4.3698498048e-03    1.0120000000e+05
    4.3799062259e-03    1.0120000000e+05
    4.3899826705e-03    1.0120000000e+05
    4.3998318724e-03    1.0120000000e+05
    4.4099334627e-03    1.0120000000e+05
    4.4198073447e-03    1.0120000000e+05
    4.4299373403e-03    1.0120000000e+05
    4.4398335740e-03    1.0120000000e+05
    4.4499807991e-03    1.0120000000e+05
    4.4598970562e-03    1.0120000000e+05
    4.4698193669e-03    1.0120000000e+05
    4.4799894094e-03    1.0120000000e+05
    4.4899224304e-03    1.0120000000e+05
    4.4998591766e-03    1.0120000000e+05
    4.5097959228e-03    1.0120000000e+05
    4.5199757442e-03    1.0120000000e+05
    4.5299134217e-03    1.0120000000e+05
    4.5398515649e-03    1.0120000000e+05
    4.5497897081e-03    1.0120000000e+05
    4.5599699952e-03    1.0120000000e+05
    4.5699076727e-03    1.0120000000e+05
    4.5798448846e-03    1.0120000000e+05
    4.5897820964e-03    1.0120000000e+05
    4.5999614522e-03    1.0120000000e+05
    4.6098977327e-03    1.0120000000e+05
    4.6198335476e-03    1.0120000000e+05
    4.6297688968e-03    1.0120000000e+05
    4.6399459243e-03    1.0120000000e+05
    4.6498798765e-03    1.0120000000e+05
    4.6598133631e-03    1.0120000000e+05
    4.6699885279e-03    1.0120000000e+05
    4.6799196862e-03    1.0120000000e+05
    4.6898513101e-03    1.0120000000e+05
    4.6997801401e-03    1.0120000000e+05
    4.7099497169e-03    1.0120000000e+05
    4.7198785469e-03    1.0120000000e+05
    4.7298041172e-03    1.0120042969e+05
    4.7399727628e-03    2.4801882812e+05
    4.7499025241e-03    3.0061506250e+05
    4.7598341480e-03    2.9874606250e+05
    4.7697741538e-03    2.9692509375e+05
    4.7799590975e-03    2.9507862500e+05
    4.7899102792e-03    2.9329406250e+05
    4.7998726368e-03    2.9152646875e+05
    4.8098377883e-03    2.8977696875e+05
    4.8198117875e-03    2.8804421875e+05
    4.8297992907e-03    2.8632706250e+05
    4.8397919163e-03    2.8462678125e+05
    4.8497910611e-03    2.8294321875e+05
    4.8598027788e-03    2.8127521875e+05
    4.8698238097e-03    2.7962315625e+05
    4.8798490316e-03    2.7798762500e+05
    4.8898831010e-03    2.7636765625e+05
    4.8999325372e-03    2.7476209375e+05
    4.9099833705e-03    2.7317296875e+05
    4.9197939225e-03    2.7163775000e+05
    4.9298643135e-03    2.7007825000e+05
    4.9399440177e-03    2.6853325000e+05
    4.9497755244e-03    2.6704146875e+05
    4.9598654732e-03    2.6552621875e+05
    4.9699693918e-03    2.6402450000e+05
    4.9798274413e-03    2.6257418750e+05
    4.9899341539e-03    2.6110217188e+05
    4.9998094328e-03    2.5967782812e+05
    5.0099422224e-03    2.5823062500e+05
    5.0198221579e-03    2.5683342188e+05
    5.0299596041e-03    2.5541410938e+05
    5.0398670137e-03    2.5404120312e+05
    5.0497758202e-03    2.5268206250e+05
    5.0599267706e-03    2.5130395312e+05
    5.0698504783e-03    2.4997007812e+05
    5.0797816366e-03    2.4864800000e+05
    5.0899605267e-03    2.4730589062e+05
    5.0998888910e-03    2.4600945312e+05
    5.1098437980e-03    2.4472218750e+05
    5.1197856665e-03    2.4344904688e+05
    5.1299878396e-03    2.4215535938e+05
    5.1399455406e-03    2.4090485938e+05
    5.1499260589e-03    2.3966376562e+05
    5.1598856226e-03    2.3843726562e+05
    5.1698694006e-03    2.3721979688e+05
    5.1798620261e-03    2.3601287500e+05
    5.1898574457e-03    2.3481704688e+05
    5.1998388954e-03    2.3363367188e+05
    5.2098529413e-03    2.3245779688e+05
    5.2198763005e-03    2.3129168750e+05
    5.2298884839e-03    2.3013798438e+05
    5.2398932166e-03    2.2899642188e+05
    5.2499277517e-03    2.2786245312e+05
    5.2599720657e-03    2.2673789062e+05
    5.2697570063e-03    2.2565207812e+05
    5.2797794342e-03    2.2455042188e+05
    5.2898246795e-03    2.2345632812e+05
    5.2998876199e-03    2.2237070312e+05
    5.3099542856e-03    2.2129492188e+05
    5.3197578527e-03    2.2025695312e+05
    5.3298217244e-03    2.1920089062e+05
    5.3398981690e-03    2.1815329688e+05
    5.3499899805e-03    2.1711348438e+05
    5.3598210216e-03    2.1610964062e+05
    5.3699067794e-03    2.1508914062e+05
    5.3799962625e-03    2.1407745312e+05
    5.3898561746e-03    2.1309779688e+05
    5.3999647498e-03    2.1210242188e+05
    5.4098195396e-03    2.1114107812e+05
    5.4199309088e-03    2.1016354688e+05
    5.4298052564e-03    2.0921764062e+05
    5.4399389774e-03    2.0825550000e+05
    5.4498109967e-03    2.0732643750e+05
    5.4599456489e-03    2.0638110938e+05
    5.4698348977e-03    2.0546668750e+05
    5.4799872451e-03    2.0453618750e+05
    5.4898797534e-03    2.0363748438e+05
    5.4997764528e-03    2.0274637500e+05
    5.5099362507e-03    2.0183950000e+05
    5.5198539048e-03    2.0096206250e+05
    5.5297687650e-03    2.0009239062e+05
    5.5399322882e-03    1.9920881250e+05
    5.5498550646e-03    1.9835370312e+05
    5.5597913451e-03    1.9750482812e+05
    5.5699860677e-03    1.9664135938e+05
    5.5799190886e-03    1.9580729688e+05
    5.5898404680e-03    1.9498142188e+05
    5.5997762829e-03    1.9416129688e+05
    5.6099868380e-03    1.9332587500e+05
    5.6199482642e-03    1.9251792188e+05
    5.6299068965e-03    1.9171706250e+05
    5.6398622692e-03    1.9092320312e+05
    5.6498148479e-03    1.9013620312e+05
    5.6597688235e-03    1.8935556250e+05
    5.6699775159e-03    1.8856150000e+05
    5.6799417362e-03    1.8779300000e+05
    5.6899120100e-03    1.8703054688e+05
    5.6998799555e-03    1.8627482812e+05
    5.7098451070e-03    1.8552576562e+05
    5.7198093273e-03    1.8478307812e+05
    5.7297726162e-03    1.8404656250e+05
    5.7399906218e-03    1.8329742188e+05
    5.7499534450e-03    1.8257306250e+05
    5.7599171996e-03    1.8185451562e+05
    5.7698814198e-03    1.8114173438e+05
    5.7798470370e-03    1.8043460938e+05
    5.7898140512e-03    1.7973310938e+05
    5.7997833937e-03    1.7903723438e+05
    5.8097522706e-03    1.7834710938e+05
    5.8199749328e-03    1.7764525000e+05
    5.8299414814e-03    1.7696662500e+05
    5.8399070986e-03    1.7629354688e+05
    5.8498722501e-03    1.7562592188e+05
    5.8598374017e-03    1.7496367188e+05
    5.8698025532e-03    1.7430673438e+05
    5.8797672391e-03    1.7365498438e+05
    5.8899871074e-03    1.7299185938e+05
    5.8999513276e-03    1.7235048438e+05
    5.9099150822e-03    1.7171417188e+05
    5.9198788367e-03    1.7108290625e+05
    5.9298425913e-03    1.7045662500e+05
    5.9398058802e-03    1.6983531250e+05
    5.9497691691e-03    1.6921896875e+05
    5.9599881060e-03    1.6859192188e+05
    5.9699518606e-03    1.6798537500e+05
    5.9799170122e-03    1.6738350000e+05
    5.9898812324e-03    1.6678621875e+05
    5.9998445213e-03    1.6619351562e+05
    6.0098068789e-03    1.6560535938e+05
    6.0197678395e-03    1.6502175000e+05
    6.0299839824e-03    1.6442793750e+05
    6.0399444774e-03    1.6385364062e+05
    6.0499049723e-03    1.6328392188e+05
    6.0598668642e-03    1.6271860938e+05
    6.0698301531e-03    1.6215745312e+05
    6.0797939077e-03    1.6160040625e+05
    6.0897571966e-03    1.6104739062e+05
    6.0999765992e-03    1.6048445312e+05
    6.1099403538e-03    1.5993987500e+05
    6.1199027114e-03    1.5939967188e+05
    6.1298641376e-03    1.5886378125e+05
    6.1398246326e-03    1.5833195312e+05
    6.1497841962e-03    1.5780404688e+05
    6.1597451568e-03    1.5727984375e+05
    6.1699673533e-03    1.5674581250e+05
    6.1799357645e-03    1.5622901562e+05
    6.1899027787e-03    1.5571626562e+05
    6.1998683959e-03    1.5520751562e+05
    6.2098335475e-03    1.5470259375e+05
    6.2197982334e-03    1.5420140625e+05
    6.2297671102e-03    1.5370365625e+05
    6.2399944291e-03    1.5319676562e+05
    6.2499647029e-03    1.5270625000e+05
    6.2599340454e-03    1.5221940625e+05
    6.2699029222e-03    1.5173609375e+05
    6.2798713334e-03    1.5125632812e+05
    6.2898425385e-03    1.5077987500e+05
    6.2998170033e-03    1.5030678125e+05
    6.3097900711e-03    1.4983723438e+05
    6.3197622076e-03    1.4937114062e+05
    6.3299885951e-03    1.4889659375e+05
    6.3399625942e-03    1.4843714062e+05
    6.3499398530e-03    1.4798087500e+05
    6.3599157147e-03    1.4752800000e+05
    6.3698911108e-03    1.4707846875e+05
    6.3798651099e-03    1.4663215625e+05
    6.3898423687e-03    1.4618879688e+05
    6.3998219557e-03    1.4574843750e+05
    6.4098001458e-03    1.4531129688e+05
    6.4197774045e-03    1.4487739062e+05
    6.4297546633e-03    1.4444668750e+05
    6.4399912953e-03    1.4400796875e+05
    6.4499722794e-03    1.4358320312e+05
    6.4599523321e-03    1.4316132812e+05
    6.4699319191e-03    1.4274237500e+05
    6.4799129032e-03    1.4232628125e+05
    6.4898948185e-03    1.4191314062e+05
    6.4998758025e-03    1.4150300000e+05
    6.5098563209e-03    1.4109582812e+05
    6.5198377706e-03    1.4069148438e+05
    6.5298196860e-03    1.4028992188e+05
    6.5398011357e-03    1.3989104688e+05
    6.5497825854e-03    1.3949481250e+05
    6.5597640350e-03    1.3910128125e+05
    6.5697459504e-03    1.3871054688e+05
    6.5799830481e-03    1.3831268750e+05
    6.5899640322e-03    1.3792750000e+05
    6.5999454819e-03    1.3754484375e+05
    6.6099269316e-03    1.3716468750e+05
    6.6199074499e-03    1.3678717188e+05
    6.6298884340e-03    1.3641231250e+05
    6.6398689523e-03    1.3604014062e+05
    6.6498494707e-03    1.3567051562e+05
    6.6598295234e-03    1.3530337500e+05
    6.6698095761e-03    1.3493865625e+05
    6.6797896288e-03    1.3457639062e+05
    6.6897692159e-03    1.3421654688e+05
    6.6997483373e-03    1.3385912500e+05
    6.7099835724e-03    1.3349498438e+05
    6.7199626938e-03    1.3314234375e+05
    6.7299418151e-03    1.3279210938e+05
    6.7399209365e-03    1.3244423438e+05
    6.7499009892e-03    1.3209871875e+05
    6.7598801106e-03    1.3175550000e+05
    6.7698587663e-03    1.3141454688e+05
    6.7798364908e-03    1.3107589062e+05
    6.7898137495e-03    1.3073955469e+05
    6.7997914739e-03    1.3040553906e+05
    6.8097696640e-03    1.3007371094e+05
    6.8197501823e-03    1.2974390625e+05
    6.8299868144e-03    1.2940768750e+05
    6.8399673328e-03    1.2908193750e+05
    6.8499473855e-03    1.2875833594e+05
    6.8599269725e-03    1.2843703906e+05
    6.8699060939e-03    1.2811802344e+05
    6.8798852153e-03    1.2780118750e+05
    6.8898648024e-03    1.2748636719e+05
    6.8998434581e-03    1.2717347656e+05
    6.9098225795e-03    1.2686253125e+05
    6.9198012352e-03    1.2655356250e+05
    6.9297798909e-03    1.2624661719e+05
    6.9397580810e-03    1.2594171094e+05
    6.9499919191e-03    1.2563109375e+05
    6.9599705748e-03    1.2533025000e+05
    6.9699492306e-03    1.2503127344e+05
    6.9799274206e-03    1.2473412500e+05
    6.9899056107e-03    1.2443880469e+05
    6.9998847321e-03    1.2414536719e+05
    7.0098680444e-03    1.2385377344e+05
    7.0198555477e-03    1.2356397656e+05
    7.0298444480e-03    1.2327600781e+05
    7.0398352109e-03    1.2298980469e+05
    7.0498269051e-03    1.2270537500e+05
    7.0598172024e-03    1.2242275000e+05
    7.0698074996e-03    1.2214185156e+05
    7.0797963999e-03    1.2186266406e+05
    7.0897857659e-03    1.2158514844e+05
    7.0997760631e-03    1.2130935156e+05
    7.1097677574e-03    1.2103541406e+05
    7.1197599173e-03    1.2076343750e+05
    7.1297516115e-03    1.2049338281e+05
    7.1399989538e-03    1.2021815625e+05
    7.1499901824e-03    1.1995119531e+05
    7.1599804796e-03    1.1968535156e+05
    7.1699712425e-03    1.1942071094e+05
    7.1799615398e-03    1.1915761719e+05
    7.1899523027e-03    1.1889667969e+05
    7.1999435313e-03    1.1863846094e+05
    7.2099347599e-03    1.1838307031e+05
    7.2199250571e-03    1.1812996094e+05
    7.2299162857e-03    1.1787780469e+05
    7.2399112396e-03    1.1762514844e+05
    7.2499085218e-03    1.1737133594e+05
    7.2599058039e-03    1.1711703906e+05
    7.2699063458e-03    1.1686400781e+05
    7.2799162008e-03    1.1661427344e+05
    7.2899279185e-03    1.1636972656e+05
    7.2999470867e-03    1.1613072656e+05
    7.3099727742e-03    1.1589596094e+05
    7.3197488673e-03    1.1566847656e+05
    7.3297889903e-03    1.1543291406e+05
    7.3398360983e-03    1.1519275781e+05
    7.3498939164e-03    1.1494790625e+05
    7.3599573225e-03    1.1470075000e+05
    7.3697702028e-03    1.1446091406e+05
    7.3798508383e-03    1.1421882031e+05
    7.3899412528e-03    1.1398324219e+05
    7.3997820728e-03    1.1376116406e+05
    7.4098859914e-03    1.1354094531e+05
    7.4199941009e-03    1.1332641406e+05
    7.4298582040e-03    1.1311874219e+05
    7.4399863370e-03    1.1290232031e+05
    7.4498639442e-03    1.1268482031e+05
    7.4597462080e-03    1.1246071875e+05
    7.4698925018e-03    1.1222650781e+05
    7.4797933921e-03    1.1199752344e+05
    7.4899606407e-03    1.1176475000e+05
    7.4998755008e-03    1.1154163281e+05
    7.5097940862e-03    1.1132274219e+05
    7.5199767016e-03    1.1110269531e+05
    7.5299129821e-03    1.1089242969e+05
    7.5398539193e-03    1.1068628906e+05
    7.5497985817e-03    1.1048389844e+05
    7.5597530231e-03    1.1028432031e+05
    7.5699663721e-03    1.1008139844e+05
    7.5799371116e-03    1.0988368750e+05
    7.5899106450e-03    1.0968514844e+05
    7.5998874381e-03    1.0948528906e+05
    7.6098768041e-03    1.0928433594e+05
    7.6198661700e-03    1.0908341406e+05
    7.6298676431e-03    1.0888306250e+05
    7.6398709789e-03    1.0868364844e+05
    7.6498747803e-03    1.0848496094e+05
    7.6598967426e-03    1.0828616406e+05
    7.6699187048e-03    1.0808741406e+05
    7.6799504459e-03    1.0788858594e+05
    7.6899868436e-03    1.0769003906e+05
    7.6997536235e-03    1.0749759375e+05
    7.7098053880e-03    1.0730089844e+05
    7.7198585495e-03    1.0710603906e+05
    7.7299191616e-03    1.0691352344e+05
    7.7399853617e-03    1.0672356250e+05
    7.7497814782e-03    1.0654119531e+05
    7.7598588541e-03    1.0635585156e+05
    7.7699455433e-03    1.0617225781e+05
    7.7797649428e-03    1.0599491406e+05
    7.7898576856e-03    1.0581362500e+05
    7.7999471687e-03    1.0563296094e+05
    7.8097819351e-03    1.0545713281e+05
    7.8198928386e-03    1.0527666406e+05
    7.8297406435e-03    1.0510139844e+05
    7.8398631886e-03    1.0492194531e+05
    7.8499810770e-03    1.0474358594e+05
    7.8598400578e-03    1.0457096875e+05
    7.8699793667e-03    1.0439468750e+05
    7.8798523173e-03    1.0422415625e+05
    7.8899981454e-03    1.0404996094e+05
    7.8998785466e-03    1.0388127344e+05
    7.9097636044e-03    1.0371341406e+05
    7.9199234024e-03    1.0354172656e+05
    7.9298196360e-03    1.0337518750e+05
    7.9399924725e-03    1.0320477344e+05
    7.9499017447e-03    1.0303971875e+05
    7.9598072916e-03    1.0287578906e+05
    7.9699913040e-03    1.0270827344e+05
    7.9799126834e-03    1.0254575781e+05
    7.9898387194e-03    1.0238367969e+05
    7.9997712746e-03    1.0222196094e+05
    8.0099748448e-03    1.0205633594e+05
    8.0199139193e-03    1.0189553125e+05
    8.0298529938e-03    1.0173527344e+05
    8.0397976562e-03    1.0157552344e+05
    8.0497562885e-03    1.0141616406e+05
    8.0599840730e-03    1.0125322656e+05
    8.0699445680e-03    1.0109558594e+05
    8.0799115822e-03    1.0093916406e+05
    8.0898813903e-03    1.0078438281e+05
    8.0998539925e-03    1.0063144531e+05
    8.1098331138e-03    1.0048046094e+05
    8.1198178232e-03    1.0033141406e+05
    8.1298053265e-03    1.0018428906e+05
    8.1397918984e-03    1.0003884375e+05
    8.1497849897e-03    9.9894476562e+04
    8.1597864628e-03    9.9750523438e+04
    8.1697888672e-03    9.9606320312e+04
    8.1797968596e-03    9.9461335938e+04
    8.1898132339e-03    9.9315507812e+04
    8.1998333335e-03    9.9169281250e+04
    8.2098534331e-03    9.9023367188e+04
    8.2198781893e-03    9.8878281250e+04
    8.2299131900e-03    9.8734210938e+04
    8.2399481907e-03    9.8591218750e+04
    8.2499831915e-03    9.8449148438e+04
    8.2597564906e-03    9.8311367188e+04
    8.2698054612e-03    9.8170132812e+04
    8.2798497751e-03    9.8029257812e+04
    8.2898978144e-03    9.7888601562e+04
    8.2999551669e-03    9.7748226562e+04
    8.3097433671e-03    9.7612289062e+04
    8.3198072389e-03    9.7473679688e+04
    8.3298776299e-03    9.7336664062e+04
    8.3399554715e-03    9.7201781250e+04
    8.3497585729e-03    9.7073007812e+04
    8.3598354831e-03    9.6943039062e+04
    8.3699217066e-03    9.6814804688e+04
    8.3797378466e-03    9.6690812500e+04
    8.3898259327e-03    9.6563085938e+04
    8.3999196067e-03    9.6434000000e+04
    8.4097478539e-03    9.6306445312e+04
    8.4198480472e-03    9.6173460938e+04
    8.4299473092e-03    9.6039226562e+04
    8.4397848696e-03    9.5908492188e+04
    8.4499036893e-03    9.5775343750e+04
    8.4597459063e-03    9.5648132812e+04
    8.4698675200e-03    9.5520289062e+04
    8.4799947217e-03    9.5395601562e+04
    8.4898499772e-03    9.5277031250e+04
    8.4999753162e-03    9.5157289062e+04
    8.5098352283e-03    9.5041617188e+04
    8.5199791938e-03    9.4922351562e+04
    8.5298474878e-03    9.4805164062e+04
    8.5399923846e-03    9.4683093750e+04
    8.5498718545e-03    9.4562789062e+04
    8.5597522557e-03    9.4441648438e+04
    8.5699064657e-03    9.4317039062e+04
    8.5797905922e-03    9.4196500000e+04
    8.5899606347e-03    9.4074007812e+04
    8.5998540744e-03    9.3956945312e+04
    8.6097465828e-03    9.3842312500e+04
    8.6199222133e-03    9.3726867188e+04
    8.6298305541e-03    9.3616562500e+04
    8.6397351697e-03    9.3507757812e+04
    8.6499191821e-03    9.3396468750e+04
    8.6598386988e-03    9.3287468750e+04
    8.6697591469e-03    9.3176750000e+04
    8.6799506098e-03    9.3060710938e+04
    8.6898738518e-03    9.2945875000e+04
    8.6998092011e-03    9.2830382812e+04
    8.7097398937e-03    9.2716093750e+04
    8.7199462578e-03    9.2601476562e+04
    8.7298899889e-03    9.2493562500e+04
    8.7398374453e-03    9.2389335938e+04
    8.7497802451e-03    9.2287867188e+04
    8.7597267702e-03    9.2187335938e+04
    8.7699592113e-03    9.2082804688e+04
    8.7799159810e-03    9.1978437500e+04
    8.7898690253e-03    9.1871054688e+04
    8.7998351082e-03    9.1761351562e+04
    8.8098095730e-03    9.1651210938e+04
    8.8197784498e-03    9.1542820312e+04
    8.8297501206e-03    9.1437648438e+04
    8.8397338986e-03    9.1336179688e+04
    8.8497232646e-03    9.1238101562e+04
    8.8599827141e-03    9.1139648438e+04
    8.8699664921e-03    9.1044210938e+04
    8.8799661025e-03    9.0947062500e+04
    8.8899619877e-03    9.0847132812e+04
    8.8999560103e-03    9.0744320312e+04
    8.9099621400e-03    9.0639710938e+04
    8.9199785143e-03    9.0535414062e+04
    8.9299911633e-03    9.0433718750e+04
    8.9397253469e-03    9.0338539062e+04
    8.9497473091e-03    9.0244476562e+04
    8.9597767219e-03    9.0153281250e+04
    8.9697921649e-03    9.0063156250e+04
    8.9798178524e-03    8.9971562500e+04
    8.9898621663e-03    8.9876656250e+04
    8.9999018237e-03    8.9778320312e+04
    9.0099396184e-03    8.9678031250e+04
    9.0199876577e-03    8.9578312500e+04
    9.0297684073e-03    8.9484320312e+04
    9.0398211032e-03    8.9392148438e+04
    9.0498672798e-03    8.9304156250e+04
    9.0599274263e-03    8.9218343750e+04
    9.0699987486e-03    8.9132085938e+04
    9.0797832236e-03    8.9045710938e+04
    9.0898564085e-03    8.8953187500e+04
    9.0999435633e-03    8.8857773438e+04
    9.1097485274e-03    8.8764648438e+04
    9.1198273003e-03    8.8671132812e+04
    9.1299135238e-03    8.8581632812e+04
    9.1397343203e-03    8.8498625000e+04
    9.1498270631e-03    8.8416148438e+04
    9.1599160805e-03    8.8334070312e+04
    9.1697480530e-03    8.8252023438e+04
    9.1798650101e-03    8.8164125000e+04
    9.1899782419e-03    8.8073312500e+04
    9.1998148710e-03    8.7984218750e+04
    9.2099467292e-03    8.7894398438e+04
    9.2198019847e-03    8.7810812500e+04
    9.2299301177e-03    8.7729187500e+04
    9.2397760600e-03    8.7652554688e+04
    9.2499163002e-03    8.7573757812e+04
    9.2597678304e-03    8.7494914062e+04
    9.2699015513e-03    8.7410351562e+04
    9.2797707766e-03    8.7325507812e+04
    9.2899342999e-03    8.7238000000e+04
    9.2998137698e-03    8.7155398438e+04
    9.3099735677e-03    8.7074453125e+04
    9.3198567629e-03    8.6999218750e+04
    9.3297418207e-03    8.6925570312e+04
    9.3399006873e-03    8.6849164062e+04
    9.3497829512e-03    8.6772335938e+04
    9.3599678949e-03    8.6690164062e+04
    9.3698687851e-03    8.6608804688e+04
    9.3797678128e-03    8.6528445312e+04
    9.3899536878e-03    8.6448945312e+04
    9.3998694792e-03    8.6375203125e+04
    9.4097880647e-03    8.6303851562e+04
    9.4199888408e-03    8.6230703125e+04
    9.4299111515e-03    8.6157710938e+04
    9.4398325309e-03    8.6082078125e+04
    9.4497520477e-03    8.6004687500e+04
    9.4599612057e-03    8.5925289062e+04
    9.4698881730e-03    8.5850367188e+04
    9.4798225909e-03    8.5778640625e+04
    9.4897514209e-03    8.5709593750e+04
    9.4999680296e-03    8.5639250000e+04
    9.5099089667e-03    8.5569335938e+04
    9.5198564231e-03    8.5497031250e+04
    9.5298020169e-03    8.5423132812e+04
    9.5397541299e-03    8.5349359375e+04
    9.5499921590e-03    8.5275554688e+04
    9.5599433407e-03    8.5206664062e+04
    9.5698954538e-03    8.5139914062e+04
    9.5798447728e-03    8.5073585938e+04
    9.5898052678e-03    8.5006000000e+04
    9.5997676253e-03    8.4936632812e+04
    9.6097327769e-03    8.4866140625e+04
    9.6199903637e-03    8.4793906250e+04
    9.6299648285e-03    8.4725453125e+04
    9.6399355680e-03    8.4659390625e+04
    9.6499063075e-03    8.4594929688e+04
    9.6598751843e-03    8.4530500000e+04
    9.6698459238e-03    8.4464960938e+04
    9.6798157319e-03    8.4398398438e+04
    9.6897948533e-03    8.4331453125e+04
    9.6997786313e-03    8.4264953125e+04
    9.7097633407e-03    8.4199625000e+04
    9.7197443247e-03    8.4135953125e+04
    9.7297336906e-03    8.4073625000e+04
    9.7397221252e-03    8.4011640625e+04
    9.7499918193e-03    8.3946875000e+04
    9.7599858418e-03    8.3882367188e+04
    9.7699770704e-03    8.3817414062e+04
    9.7799766809e-03    8.3753554688e+04
    9.7899660468e-03    8.3691742188e+04
    9.7999684513e-03    8.3631468750e+04
    9.8099745810e-03    8.3571531250e+04
    9.8199835047e-03    8.3510734375e+04
    9.8299914971e-03    8.3448867188e+04
    9.8397294059e-03    8.3388507812e+04
    9.8497560248e-03    8.3327304688e+04
    9.8597826436e-03    8.3267546875e+04
    9.8698064685e-03    8.3208984375e+04
    9.8798228428e-03    8.3151000000e+04
    9.8898522556e-03    8.3092757812e+04
    9.8998872563e-03    8.3033859375e+04
    9.9099325016e-03    8.2974539062e+04
    9.9199824035e-03    8.2915500000e+04
    9.9297482520e-03    8.2858898438e+04
    9.9398037419e-03    8.2801617188e+04
    9.9498573691e-03    8.2745250000e+04
    9.9599100649e-03    8.2689226562e+04
    9.9699608982e-03    8.2632875000e+04
    9.9797230214e-03    8.2577820312e+04
    9.9897710606e-03    8.2521390625e+04
    9.9998190999e-03    8.2465546875e+04
    1.0009868070e-02    8.2410312500e+04
    1.0019916110e-02    8.2355531250e+04
    1.0029965080e-02    8.2301007812e+04
    1.0039729066e-02    8.2248195312e+04
    1.0049779899e-02    8.2194000000e+04
    1.0059829801e-02    8.2140031250e+04
    1.0069879703e-02    8.2086375000e+04
    1.0079928674e-02    8.2033171875e+04
    1.0089977644e-02    8.1980484375e+04
    1.0099737905e-02    8.1929578125e+04
    1.0109785944e-02    8.1877203125e+04
    1.0119833052e-02    8.1824976562e+04
    1.0129880160e-02    8.1773218750e+04
    1.0139928199e-02    8.1721828125e+04
    1.0149976239e-02    8.1670640625e+04
    1.0159740224e-02    8.1621250000e+04
    1.0169791058e-02    8.1570867188e+04
    1.0179840028e-02    8.1520820312e+04
    1.0189894587e-02    8.1470890625e+04
    1.0199952871e-02    8.1420914062e+04
    1.0209721513e-02    8.1372546875e+04
    1.0219780728e-02    8.1323304688e+04
    1.0229840875e-02    8.1274546875e+04
    1.0239911266e-02    8.1225835938e+04
    1.0249984451e-02    8.1177125000e+04
    1.0259771720e-02    8.1129992188e+04
    1.0269851424e-02    8.1081835938e+04
    1.0279939510e-02    8.1034031250e+04
    1.0289737955e-02    8.0987945312e+04
    1.0299845599e-02    8.0940734375e+04
    1.0309962556e-02    8.0893765625e+04
    1.0319790803e-02    8.0848359375e+04
    1.0329910554e-02    8.0801859375e+04
    1.0339735076e-02    8.0757054688e+04
    1.0349875316e-02    8.0711132812e+04
    1.0359734297e-02    8.0666671875e+04
    1.0369883850e-02    8.0621117188e+04
    1.0379751213e-02    8.0577125000e+04
    1.0389924981e-02    8.0532070312e+04
    1.0399803519e-02    8.0488460938e+04
    1.0409989394e-02    8.0443710938e+04
    1.0419898666e-02    8.0400460938e+04
    1.0429820046e-02    8.0357414062e+04
    1.0439745151e-02    8.0314515625e+04
    1.0449954309e-02    8.0270609375e+04
    1.0459883139e-02    8.0228234375e+04
    1.0469836183e-02    8.0186125000e+04
    1.0479790159e-02    8.0144273438e+04
    1.0489752516e-02    8.0102539062e+04
    1.0499735363e-02    8.0060914062e+04
    1.0509715416e-02    8.0019515625e+04
    1.0519991629e-02    7.9977179688e+04
    1.0529975407e-02    7.9936445312e+04
    1.0539975949e-02    7.9896046875e+04
    1.0549998842e-02    7.9855804688e+04
    1.0559727438e-02    7.9816835938e+04
    1.0569768026e-02    7.9776742188e+04
    1.0579830036e-02    7.9736851562e+04
    1.0589914396e-02    7.9697187500e+04
    1.0599729605e-02    7.9658750000e+04
    1.0609869845e-02    7.9619117188e+04
    1.0619731620e-02    7.9580710938e+04
    1.0629909113e-02    7.9541390625e+04
    1.0639792308e-02    7.9503640625e+04
    1.0649980046e-02    7.9465125000e+04
    1.0659878142e-02    7.9427906250e+04
    1.0669777170e-02    7.9390781250e+04
    1.0679990053e-02    7.9352632812e+04
    1.0689937510e-02    7.9315718750e+04
    1.0699936189e-02    7.9278867188e+04
    1.0709698312e-02    7.9243140625e+04
    1.0719867423e-02    7.9206273438e+04
    1.0729864240e-02    7.9170343750e+04
    1.0739715770e-02    7.9135023438e+04
    1.0749756359e-02    7.9099031250e+04
    1.0759668425e-02    7.9063656250e+04
    1.0769778863e-02    7.9027953125e+04
    1.0779743083e-02    7.8993203125e+04
    1.0789894499e-02    7.8958156250e+04
    1.0799869895e-02    7.8923859375e+04
    1.0809648782e-02    7.8890218750e+04
    1.0819953866e-02    7.8854843750e+04
    1.0829669423e-02    7.8821796875e+04
    1.0839906521e-02    7.8787437500e+04
    1.0849906132e-02    7.8754210938e+04
    1.0859651491e-02    7.8721945312e+04
    1.0869919322e-02    7.8687960938e+04
    1.0879920796e-02    7.8654992188e+04
    1.0889640078e-02    7.8623226562e+04
    1.0899886489e-02    7.8590101562e+04
    1.0909836739e-02    7.8558218750e+04
    1.0919898748e-02    7.8526125000e+04
    1.0929648764e-02    7.8495132812e+04
    1.0939934291e-02    7.8462671875e+04
    1.0949901305e-02    7.8431539062e+04
    1.0959967040e-02    7.8400351562e+04
    1.0969677009e-02    7.8370398438e+04
    1.0979909450e-02    7.8338953125e+04
    1.0989774950e-02    7.8308890625e+04
    1.0999710299e-02    7.8278898438e+04
    1.1009708047e-02    7.8248890625e+04
    1.1019760743e-02    7.8218812500e+04
    1.1029850692e-02    7.8188835938e+04
    1.1039988138e-02    7.8159078125e+04
    1.1049691588e-02    7.8130781250e+04
    1.1059912853e-02    7.8101078125e+04
    1.1069717817e-02    7.8072734375e+04
    1.1079555377e-02    7.8044523438e+04
    1.1089903302e-02    7.8015125000e+04
    1.1099826545e-02    7.7987156250e+04
    1.1109802872e-02    7.7959265625e+04
    1.1119799688e-02    7.7931437500e+04
    1.1129864492e-02    7.7903585938e+04
    1.1139966547e-02    7.7875890625e+04
    1.1149627157e-02    7.7849585938e+04
    1.1159793474e-02    7.7822296875e+04
    1.1169538833e-02    7.7796148438e+04
    1.1179802939e-02    7.7768789062e+04
    1.1189612560e-02    7.7742726562e+04
    1.1199960485e-02    7.7715664062e+04
    1.1209857650e-02    7.7689906250e+04
    1.1219769716e-02    7.7664429688e+04
    1.1229795404e-02    7.7638718750e+04
    1.1239755899e-02    7.7613328125e+04
    1.1249774136e-02    7.7588046875e+04
    1.1259841733e-02    7.7562757812e+04
    1.1269961484e-02    7.7537578125e+04
    1.1279624887e-02    7.7513882812e+04
    1.1289813556e-02    7.7488976562e+04
    1.1299963109e-02    7.7464281250e+04
    1.1309672147e-02    7.7440796875e+04
    1.1319971643e-02    7.7416164062e+04
    1.1329811066e-02    7.7393000000e+04
    1.1339601129e-02    7.7369664062e+04
    1.1349977925e-02    7.7345539062e+04
    1.1359917000e-02    7.7322679688e+04
    1.1369849555e-02    7.7299726562e+04
    1.1379837990e-02    7.7277062500e+04
    1.1389785446e-02    7.7254437500e+04
    1.1399729177e-02    7.7232015625e+04
    1.1409725063e-02    7.7209976562e+04
    1.1419771239e-02    7.7187812500e+04
    1.1429871432e-02    7.7165750000e+04
    1.1439975351e-02    7.7143875000e+04
    1.1449566111e-02    7.7123273438e+04
    1.1459733360e-02    7.7101679688e+04
    1.1469880119e-02    7.7080226562e+04
    1.1479569599e-02    7.7059937500e+04
    1.1489763856e-02    7.7038585938e+04
    1.1499499902e-02    7.7018585938e+04
    1.1509750038e-02    7.6997687500e+04
    1.1519527063e-02    7.6978164062e+04
    1.1529815383e-02    7.6957453125e+04
    1.1539549567e-02    7.6938085938e+04
    1.1549834162e-02    7.6917718750e+04
    1.1559525505e-02    7.6898750000e+04
    1.1569671333e-02    7.6879164062e+04
    1.1579587124e-02    7.6860187500e+04
    1.1589741334e-02    7.6840828125e+04
    1.1599539779e-02    7.6822343750e+04
    1.1609925888e-02    7.6802992188e+04
    1.1619914323e-02    7.6784585938e+04
    1.1629946530e-02    7.6766257812e+04
    1.1639984325e-02    7.6748070312e+04
    1.1649986729e-02    7.6730101562e+04
    1.1659914628e-02    7.6712437500e+04
    1.1669725180e-02    7.6695132812e+04
    1.1679708026e-02    7.6677687500e+04
    1.1689757928e-02    7.6660335938e+04
    1.1699762195e-02    7.6643289062e+04
    1.1709868908e-02    7.6626265625e+04
    1.1719868518e-02    7.6609546875e+04
    1.1729964986e-02    7.6592773438e+04
    1.1739918962e-02    7.6576375000e+04
    1.1749917641e-02    7.6560117188e+04
    1.1759964749e-02    7.6544078125e+04
    1.1769949459e-02    7.6528343750e+04
    1.1779856868e-02    7.6512867188e+04
    1.1789881624e-02    7.6497312500e+04
    1.1799936183e-02    7.6481867188e+04
    1.1809832416e-02    7.6466835938e+04
    1.1819832027e-02    7.6451828125e+04
    1.1829817668e-02    7.6437007812e+04
    1.1839880608e-02    7.6422226562e+04
    1.1849842034e-02    7.6407757812e+04
    1.1859844439e-02    7.6393414062e+04
    1.1869872920e-02    7.6379234375e+04
    1.1879928410e-02    7.6365195312e+04
    1.1889978312e-02    7.6351281250e+04
    1.1899990030e-02    7.6337601562e+04
    1.1909909546e-02    7.6324242188e+04
    1.1919955723e-02    7.6310890625e+04
    1.1929862201e-02    7.6297835938e+04
    1.1939856224e-02    7.6284828125e+04
    1.1949911714e-02    7.6271937500e+04
    1.1959797703e-02    7.6259414062e+04
    1.1969969608e-02    7.6246664062e+04
    1.1979952455e-02    7.6234320312e+04
    1.1989985593e-02    7.6222101562e+04
    1.1999810115e-02    7.6210328125e+04
    1.2009919621e-02    7.6198382812e+04
    1.2019813061e-02    7.6186851562e+04
    1.2029981241e-02    7.6175101562e+04
    1.2039943598e-02    7.6163671875e+04
    1.2049920857e-02    7.6152390625e+04
    1.2059946544e-02    7.6141296875e+04
    1.2069961987e-02    7.6130484375e+04
    1.2079795823e-02    7.6120023438e+04
    1.2089868076e-02    7.6109359375e+04
    1.2099966407e-02    7.6098734375e+04
    1.2109847739e-02    7.6088539062e+04
    1.2119977735e-02    7.6078351562e+04
    1.2129912153e-02    7.6068531250e+04
    1.2139821425e-02    7.6058843750e+04
    1.2149783783e-02    7.6049242188e+04
    1.2159993872e-02    7.6039632812e+04
    1.2169979513e-02    7.6030445312e+04
    1.2179986574e-02    7.6021382812e+04
    1.2189772911e-02    7.6012656250e+04
    1.2199826539e-02    7.6003835938e+04
    1.2209876440e-02    7.5995171875e+04
    1.2219964527e-02    7.5986640625e+04
    1.2229819782e-02    7.5978445312e+04
    1.2239923701e-02    7.5970164062e+04
    1.2249806896e-02    7.5962210938e+04
    1.2259960175e-02    7.5954226562e+04
    1.2269874103e-02    7.5946578125e+04
    1.2279791757e-02    7.5939062500e+04
    1.2289991602e-02    7.5931484375e+04
    1.2299948372e-02    7.5924281250e+04
    1.2309904210e-02    7.5917273438e+04
    1.2319888920e-02    7.5910429688e+04
    1.2329892255e-02    7.5903742188e+04
    1.2339891866e-02    7.5897171875e+04
    1.2349903584e-02    7.5890687500e+04
    1.2359946966e-02    7.5884328125e+04
    1.2369987555e-02    7.5878203125e+04
    1.2379777618e-02    7.5872453125e+04
    1.2389849871e-02    7.5866687500e+04
    1.2399931438e-02    7.5860968750e+04
    1.2409750372e-02    7.5855507812e+04
    1.2419835664e-02    7.5850117188e+04
    1.2429955415e-02    7.5844960938e+04
    1.2439810671e-02    7.5840046875e+04
    1.2449925765e-02    7.5835039062e+04
    1.2459814548e-02    7.5830273438e+04
    1.2469966896e-02    7.5825648438e+04
    1.2479854748e-02    7.5821359375e+04
    1.2489765882e-02    7.5817164062e+04
    1.2499950826e-02    7.5812976562e+04
    1.2509869412e-02    7.5809078125e+04
    1.2519789860e-02    7.5805351562e+04
    1.2529745698e-02    7.5801750000e+04
    1.2539958581e-02    7.5798226562e+04
    1.2549911626e-02    7.5794976562e+04
    1.2559876777e-02    7.5791859375e+04
    1.2569862418e-02    7.5788867188e+04
    1.2579845265e-02    7.5786031250e+04
    1.2589835562e-02    7.5783359375e+04
    1.2599840760e-02    7.5780835938e+04
    1.2609854341e-02    7.5778500000e+04
    1.2619866058e-02    7.5776343750e+04
    1.2629896402e-02    7.5774296875e+04
    1.2639936060e-02    7.5772320312e+04
    1.2649975717e-02    7.5770484375e+04
    1.2659762055e-02    7.5768914062e+04
    1.2669823132e-02    7.5767500000e+04
    1.2679891661e-02    7.5766226562e+04
    1.2689958327e-02    7.5765093750e+04
    1.2699773535e-02    7.5764125000e+04
    1.2709859759e-02    7.5763234375e+04
    1.2719953433e-02    7.5762460938e+04
    1.2729790993e-02    7.5761960938e+04
    1.2739896774e-02    7.5761765625e+04
    1.2749745511e-02    7.5761687500e+04
    1.2759862468e-02    7.5761562500e+04
    1.2769986875e-02    7.5761507812e+04
    1.2779857963e-02    7.5761765625e+04
    1.2789989822e-02    7.5762335938e+04
    1.2799868360e-02    7.5762984375e+04
    1.2809756212e-02    7.5763687500e+04
    1.2819912285e-02    7.5764601562e+04
    1.2829808518e-02    7.5765742188e+04
    1.2839968316e-02    7.5767070312e+04
    1.2849875726e-02    7.5768445312e+04
    1.2859788723e-02    7.5769976562e+04
    1.2869967148e-02    7.5771796875e+04
    1.2879885733e-02    7.5773757812e+04
    1.2889809906e-02    7.5775781250e+04
    1.2899738736e-02    7.5777898438e+04
    1.2909934856e-02    7.5780312500e+04
    1.2919872999e-02    7.5782953125e+04
    1.2929813005e-02    7.5785718750e+04
    1.2939755805e-02    7.5788468750e+04
    1.2949969620e-02    7.5791390625e+04
    1.2959927320e-02    7.5794507812e+04
    1.2969885953e-02    7.5797875000e+04
    1.2979845516e-02    7.5801367188e+04
    1.2989802286e-02    7.5804929688e+04
    1.2999765575e-02    7.5808648438e+04
    1.3009995222e-02    7.5812734375e+04
    1.3019964099e-02    7.5816929688e+04
    1.3029936701e-02    7.5821226562e+04
    1.3039915822e-02    7.5825570312e+04
    1.3049898669e-02    7.5830062500e+04
    1.3059881516e-02    7.5834828125e+04
    1.3069865294e-02    7.5839851562e+04
    1.3079849072e-02    7.5845000000e+04
    1.3089831918e-02    7.5850195312e+04
    1.3099813834e-02    7.5855468750e+04
    1.3109796681e-02    7.5860953125e+04
    1.3119778596e-02    7.5866718750e+04
    1.3129760511e-02    7.5872726562e+04
    1.3139743358e-02    7.5878859375e+04
    1.3149988838e-02    7.5885203125e+04
    1.3159972616e-02    7.5891484375e+04
    1.3169957325e-02    7.5897992188e+04
    1.3179942034e-02    7.5904757812e+04
    1.3189927675e-02    7.5911726562e+04
    1.3199913315e-02    7.5918835938e+04
    1.3209900819e-02    7.5926015625e+04
    1.3219889253e-02    7.5933289062e+04
    1.3229877688e-02    7.5940757812e+04
    1.3239867054e-02    7.5948500000e+04
    1.3249855489e-02    7.5956476562e+04
    1.3259844854e-02    7.5964578125e+04
    1.3269833289e-02    7.5972742188e+04
    1.3279822655e-02    7.5981039062e+04
    1.3289812952e-02    7.5989531250e+04
    1.3299803250e-02    7.5998289062e+04
    1.3309795409e-02    7.6007265625e+04
    1.3319786638e-02    7.6016406250e+04
    1.3329778798e-02    7.6025687500e+04
    1.3339771889e-02    7.6035093750e+04
    1.3349764980e-02    7.6044632812e+04
    1.3359758072e-02    7.6054320312e+04
    1.3369752094e-02    7.6064242188e+04
    1.3379746117e-02    7.6074437500e+04
    1.3389741071e-02    7.6084835938e+04
    1.3399998657e-02    7.6095578125e+04
    1.3409994543e-02    7.6106125000e+04
    1.3419989496e-02    7.6116859375e+04
    1.3429985382e-02    7.6127843750e+04
    1.3439981267e-02    7.6139070312e+04
    1.3449979015e-02    7.6150484375e+04
    1.3459976763e-02    7.6162078125e+04
    1.3469977304e-02    7.6173851562e+04
    1.3479981571e-02    7.6185789062e+04
    1.3489988633e-02    7.6197859375e+04
    1.3499999419e-02    7.6210093750e+04
    1.3509745710e-02    7.6222195312e+04
    1.3519754633e-02    7.6234875000e+04
    1.3529761694e-02    7.6247773438e+04
    1.3539768755e-02    7.6260828125e+04
    1.3549774885e-02    7.6274031250e+04
    1.3559781015e-02    7.6287375000e+04
    1.3569789939e-02    7.6300867188e+04
    1.3579801656e-02    7.6314546875e+04
    1.3589815237e-02    7.6328453125e+04
    1.3599827886e-02    7.6342617188e+04
    1.3609840535e-02    7.6357000000e+04
    1.3619853184e-02    7.6371539062e+04
    1.3629865833e-02    7.6386218750e+04
    1.3639878482e-02    7.6401062500e+04
    1.3649891131e-02    7.6416164062e+04
    1.3659904711e-02    7.6431531250e+04
    1.3669918291e-02    7.6447109375e+04
    1.3679932803e-02    7.6462882812e+04
    1.3689946383e-02    7.6478851562e+04
    1.3699960895e-02    7.6495062500e+04
    1.3709974475e-02    7.6511500000e+04
    1.3719988056e-02    7.6528101562e+04
    1.3729738072e-02    7.6544398438e+04
    1.3739752583e-02    7.6561312500e+04
    1.3749767095e-02    7.6578468750e+04
    1.3759781606e-02    7.6595875000e+04
    1.3769796118e-02    7.6613507812e+04
    1.3779810630e-02    7.6631328125e+04
    1.3789825141e-02    7.6649359375e+04
    1.3799839653e-02    7.6667585938e+04
    1.3809854165e-02    7.6685992188e+04
    1.3819869608e-02    7.6704554688e+04
    1.3829884119e-02    7.6723343750e+04
    1.3839899562e-02    7.6742398438e+04
    1.3849915005e-02    7.6761687500e+04
    1.3859929517e-02    7.6781218750e+04
    1.3869944960e-02    7.6801000000e+04
    1.3879959472e-02    7.6821023438e+04
    1.3889974914e-02    7.6841234375e+04
    1.3899990357e-02    7.6861632812e+04
    1.3909742236e-02    7.6881703125e+04
    1.3919757679e-02    7.6902554688e+04
    1.3929773122e-02    7.6923648438e+04
    1.3939788565e-02    7.6944945312e+04
    1.3949804008e-02    7.6966476562e+04
    1.3959819451e-02    7.6988296875e+04
    1.3969835825e-02    7.7010437500e+04
    1.3979851268e-02    7.7032828125e+04
    1.3989866711e-02    7.7055382812e+04
    1.3999882154e-02    7.7078101562e+04
    1.4009898528e-02    7.7101078125e+04
    1.4019914903e-02    7.7124343750e+04
    1.4029930346e-02    7.7147882812e+04
    1.4039946720e-02    7.7171648438e+04
    1.4049963094e-02    7.7196250000e+04
    1.4059979469e-02    7.7310046875e+04
    1.4069995843e-02    8.3983382812e+04
    1.4079747722e-02    1.0552010156e+05
    1.4089764096e-02    1.0440762500e+05
    1.4099780470e-02    1.0418737500e+05
    1.4109796844e-02    1.0415174219e+05
    1.4119814150e-02    1.0410903906e+05
    1.4129830524e-02    1.0405571875e+05
    1.4139846899e-02    1.0399837500e+05
    1.4149863273e-02    1.0393775000e+05
    1.4159880579e-02    1.0387615625e+05
    1.4169896953e-02    1.0381496875e+05
    1.4179914258e-02    1.0375481250e+05
    1.4189930633e-02    1.0369481250e+05
    1.4199947938e-02    1.0363544531e+05
    1.4209965244e-02    1.0357589844e+05
    1.4219982550e-02    1.0351675000e+05
    1.4229999855e-02    1.0345778906e+05
    1.4239752665e-02    1.0340060156e+05
    1.4249769971e-02    1.0334178906e+05
    1.4259787276e-02    1.0328328906e+05
    1.4269805513e-02    1.0322577344e+05
    1.4279822819e-02    1.0316677344e+05
    1.4289841056e-02    1.0310850781e+05
    1.4299858361e-02    1.0305346094e+05
    1.4309876598e-02    1.0299446094e+05
    1.4319894835e-02    1.0293803125e+05
    1.4329913072e-02    1.0288141406e+05
    1.4339930378e-02    1.0282478125e+05
    1.4349948615e-02    1.0276808594e+05
    1.4359966852e-02    1.0271082031e+05
    1.4369986020e-02    1.0265607031e+05
    1.4379740693e-02    1.0260096875e+05
    1.4389759861e-02    1.0254581250e+05
    1.4399779961e-02    1.0249018750e+05
    1.4409799129e-02    1.0243480469e+05
    1.4419818297e-02    1.0237980469e+05
    1.4429837465e-02    1.0232497656e+05
    1.4439856634e-02    1.0227050000e+05
    1.4449876733e-02    1.0221611719e+05
    1.4459895901e-02    1.0216189844e+05
    1.4469916001e-02    1.0210789844e+05
    1.4479937032e-02    1.0205403906e+05
    1.4489958063e-02    1.0200046094e+05
    1.4499979094e-02    1.0194699219e+05
    1.4509736560e-02    1.0189511719e+05
    1.4519758523e-02    1.0184200781e+05
    1.4529779553e-02    1.0178908594e+05
    1.4539800584e-02    1.0173647656e+05
    1.4549821615e-02    1.0168407031e+05
    1.4559843577e-02    1.0163191406e+05
    1.4569866471e-02    1.0157996094e+05
    1.4579888433e-02    1.0152810156e+05
    1.4589910395e-02    1.0147652344e+05
    1.4599933289e-02    1.0142510156e+05
    1.4609956183e-02    1.0137385156e+05
    1.4619979076e-02    1.0132289844e+05
    1.4629738405e-02    1.0127335156e+05
    1.4639761299e-02    1.0122263281e+05
    1.4649785124e-02    1.0117197656e+05
    1.4659808017e-02    1.0112169531e+05
    1.4669831842e-02    1.0107222656e+05
    1.4679855667e-02    1.0102149219e+05
    1.4689878561e-02    1.0097171875e+05
    1.4699902385e-02    1.0092264844e+05
    1.4709926210e-02    1.0087346875e+05
    1.4719950035e-02    1.0082305469e+05
    1.4729974791e-02    1.0077447656e+05
    1.4739999548e-02    1.0072617969e+05
    1.4749760740e-02    1.0067828906e+05
    1.4759786427e-02    1.0062927344e+05
    1.4769811183e-02    1.0058197656e+05
    1.4779835939e-02    1.0053349219e+05
    1.4789861627e-02    1.0048564844e+05
    1.4799887314e-02    1.0043803906e+05
    1.4809913002e-02    1.0039037500e+05
    1.4819938689e-02    1.0034303906e+05
    1.4829964377e-02    1.0029578125e+05
    1.4839990065e-02    1.0024864844e+05
    1.4849753119e-02    1.0020306250e+05
    1.4859779738e-02    1.0015637500e+05
    1.4869806357e-02    1.0010991406e+05
    1.4879832976e-02    1.0006371094e+05
    1.4889859594e-02    1.0001771875e+05
    1.4899887145e-02    9.9971898438e+04
    1.4909913763e-02    9.9926125000e+04
    1.4919942245e-02    9.9880398438e+04
    1.4929969795e-02    9.9834664062e+04
    1.4939997345e-02    9.9789031250e+04
    1.4949761331e-02    9.9744812500e+04
    1.4959789813e-02    9.9699687500e+04
    1.4969817363e-02    9.9654851562e+04
    1.4979845844e-02    9.9610226562e+04
    1.4989875257e-02    9.9565789062e+04
    1.4999903738e-02    9.9521523438e+04
    1.5009932220e-02    9.9477289062e+04
    1.5019961633e-02    9.9433304688e+04
    1.5029990114e-02    9.9389820312e+04
    1.5039755963e-02    9.9347023438e+04
    1.5049785376e-02    9.9303000000e+04
    1.5059815720e-02    9.9260242188e+04
    1.5069845133e-02    9.9216851562e+04
    1.5079875477e-02    9.9173523438e+04
    1.5089905821e-02    9.9130289062e+04
    1.5099936165e-02    9.9088398438e+04
    1.5109966509e-02    9.9045062500e+04
    1.5119996853e-02    9.9002101562e+04
    1.5129763633e-02    9.8961132812e+04
    1.5139794908e-02    9.8919726562e+04
    1.5149826184e-02    9.8876695312e+04
    1.5159857459e-02    9.8834539062e+04
    1.5169888735e-02    9.8793554688e+04
    1.5179920942e-02    9.8751539062e+04
    1.5189953148e-02    9.8709757812e+04
    1.5199984424e-02    9.8668468750e+04
    1.5209753066e-02    9.8628289062e+04
    1.5219785273e-02    9.8587281250e+04
    1.5229817480e-02    9.8545851562e+04
    1.5239849687e-02    9.8505460938e+04
    1.5249882825e-02    9.8464156250e+04
    1.5259915031e-02    9.8423804688e+04
    1.5269948170e-02    9.8382945312e+04
    1.5279981308e-02    9.8342656250e+04
    1.5289750881e-02    9.8303312500e+04
    1.5299784020e-02    9.8263242188e+04
    1.5309818089e-02    9.8223210938e+04
    1.5319851227e-02    9.8183273438e+04
    1.5329885297e-02    9.8143375000e+04
    1.5339919366e-02    9.8103523438e+04
    1.5349953435e-02    9.8063835938e+04
    1.5359987505e-02    9.8024335938e+04
    1.5369758010e-02    9.7986117188e+04
    1.5379792079e-02    9.7947039062e+04
    1.5389827080e-02    9.7907914062e+04
    1.5399862081e-02    9.7868593750e+04
    1.5409896150e-02    9.7829085938e+04
    1.5419931151e-02    9.7789539062e+04
    1.5429967083e-02    9.7750351562e+04
    1.5439737588e-02    9.7712875000e+04
    1.5449773520e-02    9.7675289062e+04
    1.5459808521e-02    9.7638468750e+04
    1.5469844453e-02    9.7601195312e+04
    1.5479880385e-02    9.7562406250e+04
    1.5489916317e-02    9.7523195312e+04
    1.5499952249e-02    9.7483289062e+04
    1.5509988181e-02    9.7442242188e+04
    1.5519759618e-02    9.7404226562e+04
    1.5529796481e-02    9.7368148438e+04
    1.5539832413e-02    9.7333968750e+04
    1.5549869277e-02    9.7299804688e+04
    1.5559906140e-02    9.7266039062e+04
    1.5569943003e-02    9.7230164062e+04
    1.5579979867e-02    9.7191273438e+04
    1.5589752235e-02    9.7151054688e+04
    1.5599790029e-02    9.7109648438e+04
    1.5609826893e-02    9.7068726562e+04
    1.5619863756e-02    9.7029406250e+04
    1.5629902482e-02    9.6992539062e+04
    1.5639940277e-02    9.6957726562e+04
    1.5649976209e-02    9.6923500000e+04
    1.5659751371e-02    9.6891007812e+04
    1.5669789165e-02    9.6857070312e+04
    1.5679826960e-02    9.6823367188e+04
    1.5689864755e-02    9.6788960938e+04
    1.5699902549e-02    9.6754289062e+04
    1.5709940344e-02    9.6718773438e+04
    1.5719980001e-02    9.6682906250e+04
    1.5729753301e-02    9.6647414062e+04
    1.5739792958e-02    9.6610585938e+04
    1.5749830753e-02    9.6573375000e+04
    1.5759870410e-02    9.6536085938e+04
    1.5769908205e-02    9.6499054688e+04
    1.5779947862e-02    9.6462523438e+04
    1.5789987519e-02    9.6426679688e+04
    1.5799762681e-02    9.6392539062e+04
    1.5809802338e-02    9.6358117188e+04
    1.5819840133e-02    9.6324023438e+04
    1.5829879791e-02    9.6289960938e+04
    1.5839919448e-02    9.6255804688e+04
    1.5849959105e-02    9.6221718750e+04
    1.5859998763e-02    9.6187820312e+04
    1.5869775787e-02    9.6154398438e+04
    1.5879815444e-02    9.6119773438e+04
    1.5889855102e-02    9.6086343750e+04
    1.5899894759e-02    9.6052914062e+04
    1.5909936279e-02    9.6018398438e+04
    1.5919975936e-02    9.5985093750e+04
    1.5929752961e-02    9.5952929688e+04
    1.5939792618e-02    9.5919039062e+04
    1.5949834138e-02    9.5884843750e+04
    1.5959873796e-02    9.5851750000e+04
    1.5969915316e-02    9.5817632812e+04
    1.5979954973e-02    9.5783093750e+04
    1.5989996493e-02    9.5748429688e+04
    1.5999773517e-02    9.5714906250e+04
    1.6009815037e-02    9.5679789062e+04
    1.6019856557e-02    9.5645031250e+04
    1.6029896215e-02    9.5610898438e+04
    1.6039937735e-02    9.5577570312e+04
    1.6049979255e-02    9.5545070312e+04
    1.6059756279e-02    9.5514960938e+04
    1.6069797799e-02    9.5484398438e+04
    1.6079839319e-02    9.5454656250e+04
    1.6089882702e-02    9.5424437500e+04
    1.6099924222e-02    9.5393843750e+04
    1.6109965742e-02    9.5361906250e+04
    1.6119742766e-02    9.5330007812e+04
    1.6129784286e-02    9.5296304688e+04
    1.6139825806e-02    9.5262648438e+04
    1.6149869189e-02    9.5229187500e+04
    1.6159910709e-02    9.5196273438e+04
    1.6169952229e-02    9.5163679688e+04
    1.6179993749e-02    9.5131164062e+04
    1.6189772636e-02    9.5099460938e+04
    1.6199816018e-02    9.5066945312e+04
    1.6209857538e-02    9.5034914062e+04
    1.6219900921e-02    9.5003710938e+04
    1.6229942441e-02    9.4973273438e+04
    1.6239985824e-02    9.4943289062e+04
    1.6249762848e-02    9.4913875000e+04
    1.6259806231e-02    9.4882429688e+04
    1.6269849613e-02    9.4849304688e+04
    1.6279891133e-02    9.4816125000e+04
    1.6289934516e-02    9.4783789062e+04
    1.6299977899e-02    9.4751210938e+04
    1.6309754923e-02    9.4720820312e+04
    1.6319798306e-02    9.4691773438e+04
    1.6329841688e-02    9.4662062500e+04
    1.6339885071e-02    9.4631437500e+04
    1.6349926591e-02    9.4600617188e+04
    1.6359969974e-02    9.4569460938e+04
    1.6369748861e-02    9.4537601562e+04
    1.6379792243e-02    9.4505445312e+04
    1.6389835626e-02    9.4474398438e+04
    1.6399879009e-02    9.4444601562e+04
    1.6409922391e-02    9.4414320312e+04
    1.6419963911e-02    9.4385226562e+04
    1.6429742798e-02    9.4355843750e+04
    1.6439786181e-02    9.4324843750e+04
    1.6449829563e-02    9.4293539062e+04
    1.6459872946e-02    9.4262125000e+04
    1.6469916329e-02    9.4231281250e+04
    1.6479959711e-02    9.4201398438e+04
    1.6489738598e-02    9.4172757812e+04
    1.6499781981e-02    9.4143648438e+04
    1.6509825364e-02    9.4113804688e+04
    1.6519868746e-02    9.4083375000e+04
    1.6529912129e-02    9.4052242188e+04
    1.6539955512e-02    9.4021585938e+04
    1.6549998894e-02    9.3991500000e+04
    1.6559777781e-02    9.3963125000e+04
    1.6569821164e-02    9.3934148438e+04
    1.6579864547e-02    9.3904820312e+04
    1.6589907929e-02    9.3874851562e+04
    1.6599951312e-02    9.3844429688e+04
    1.6609994695e-02    9.3814187500e+04
    1.6619773582e-02    9.3785351562e+04
    1.6629816964e-02    9.3756492188e+04
    1.6639860347e-02    9.3728000000e+04
    1.6649903730e-02    9.3699007812e+04
    1.6659947112e-02    9.3668914062e+04
    1.6669990495e-02    9.3638742188e+04
    1.6679769382e-02    9.3610343750e+04
    1.6689812765e-02    9.3581039062e+04
    1.6699856147e-02    9.3551750000e+04
    1.6709899530e-02    9.3523835938e+04
    1.6719942912e-02    9.3494992188e+04
    1.6729984432e-02    9.3464835938e+04
    1.6739763319e-02    9.3436257812e+04
    1.6749806702e-02    9.3407867188e+04
    1.6759850085e-02    9.3379304688e+04
    1.6769893467e-02    9.3350523438e+04
    1.6779936850e-02    9.3322148438e+04
    1.6789980233e-02    9.3293164062e+04
    1.6799759120e-02    9.3264898438e+04
    1.6809802502e-02    9.3236125000e+04
    1.6819845885e-02    9.3208148438e+04
    1.6829889268e-02    9.3179476562e+04
    1.6839932650e-02    9.3151476562e+04
    1.6849974170e-02    9.3122523438e+04
    1.6859753057e-02    9.3095000000e+04
    1.6869796440e-02    9.3066531250e+04
    1.6879839823e-02    9.3038562500e+04
    1.6889883205e-02    9.3010531250e+04
    1.6899926588e-02    9.2982343750e+04
    1.6909969971e-02    9.2954023438e+04
    1.6919748858e-02    9.2926593750e+04
    1.6929790378e-02    9.2898531250e+04
    1.6939833760e-02    9.2870812500e+04
    1.6949877143e-02    9.2842851562e+04
    1.6959920526e-02    9.2815039062e+04
    1.6969963908e-02    9.2787148438e+04
    1.6979742795e-02    9.2760093750e+04
    1.6989786178e-02    9.2732625000e+04
    1.6999829561e-02    9.2704968750e+04
    1.7009874806e-02    9.2677312500e+04
    1.7019918188e-02    9.2649773438e+04
    1.7029961571e-02    9.2622335938e+04
    1.7039742321e-02    9.2595867188e+04
    1.7049785703e-02    9.2568398438e+04
    1.7059830949e-02    9.2540773438e+04
    1.7069874331e-02    9.2513875000e+04
    1.7079919577e-02    9.2486445312e+04
    1.7089964822e-02    9.2458101562e+04
    1.7099745572e-02    9.2431773438e+04
    1.7109788954e-02    9.2404992188e+04
    1.7119834200e-02    9.2377054688e+04
    1.7129879445e-02    9.2349882812e+04
    1.7139924690e-02    9.2323835938e+04
    1.7149971798e-02    9.2297687500e+04
    1.7159752548e-02    9.2271500000e+04
    1.7169797793e-02    9.2245867188e+04
    1.7179844901e-02    9.2219617188e+04
    1.7189890146e-02    9.2192687500e+04
    1.7199937254e-02    9.2166000000e+04
    1.7209984362e-02    9.2139101562e+04
    1.7219766974e-02    9.2112507812e+04
    1.7229814082e-02    9.2085570312e+04
    1.7239861190e-02    9.2058945312e+04
    1.7249908298e-02    9.2032437500e+04
    1.7259957269e-02    9.2006281250e+04
    1.7269739881e-02    9.1980695312e+04
    1.7279788852e-02    9.1954867188e+04
    1.7289837822e-02    9.1928632812e+04
    1.7299886793e-02    9.1902617188e+04
    1.7309935763e-02    9.1876414062e+04
    1.7319986597e-02    9.1850632812e+04
    1.7329771072e-02    9.1825257812e+04
    1.7339821905e-02    9.1799273438e+04
    1.7349872738e-02    9.1773226562e+04
    1.7359923571e-02    9.1747382812e+04
    1.7369974405e-02    9.1721601562e+04
    1.7379762605e-02    9.1696429688e+04
    1.7389815301e-02    9.1670726562e+04
    1.7399866134e-02    9.1645000000e+04
    1.7409918830e-02    9.1619281250e+04
    1.7419969663e-02    9.1593820312e+04
    1.7429757863e-02    9.1569304688e+04
    1.7439810559e-02    9.1543875000e+04
    1.7449861392e-02    9.1518679688e+04
    1.7459914088e-02    9.1494460938e+04
    1.7469966784e-02    9.1469789062e+04
    1.7479756847e-02    9.1445226562e+04
    1.7489811406e-02    9.1420929688e+04
    1.7499865964e-02    9.1396664062e+04
    1.7509918660e-02    9.1371500000e+04
    1.7519975081e-02    9.1346148438e+04
    1.7529767007e-02    9.1322468750e+04
    1.7539823428e-02    9.1297226562e+04
    1.7549879849e-02    9.1271507812e+04
    1.7559936270e-02    9.1246867188e+04
    1.7569992691e-02    9.1222242188e+04
    1.7579786479e-02    9.1198093750e+04
    1.7589844763e-02    9.1174062500e+04
    1.7599904910e-02    9.1150179688e+04
    1.7609963194e-02    9.1126335938e+04
    1.7619758844e-02    9.1103210938e+04
    1.7629820853e-02    9.1079476562e+04
    1.7639884725e-02    9.1055117188e+04
    1.7649948597e-02    9.1031195312e+04
    1.7659746110e-02    9.1007195312e+04
    1.7669809982e-02    9.0983226562e+04
    1.7679875717e-02    9.0958914062e+04
    1.7689939588e-02    9.0935335938e+04
    1.7699738964e-02    9.0912226562e+04
    1.7709804699e-02    9.0888937500e+04
    1.7719870433e-02    9.0865507812e+04
    1.7729938030e-02    9.0842226562e+04
    1.7739741132e-02    9.0819304688e+04
    1.7749808729e-02    9.0795898438e+04
    1.7759876326e-02    9.0772335938e+04
    1.7769949511e-02    9.0749093750e+04
    1.7779756337e-02    9.0726476562e+04
    1.7789829522e-02    9.0703312500e+04
    1.7799904570e-02    9.0680156250e+04
    1.7809977755e-02    9.0657335938e+04
    1.7819788307e-02    9.0635289062e+04
    1.7829867080e-02    9.0612187500e+04
    1.7839943990e-02    9.0589281250e+04
    1.7849758267e-02    9.0567601562e+04
    1.7859835178e-02    9.0544875000e+04
    1.7869915813e-02    9.0521789062e+04
    1.7879735678e-02    9.0500164062e+04
    1.7889818177e-02    9.0478039062e+04
    1.7899904400e-02    9.0455242188e+04
    1.7909992486e-02    9.0432570312e+04
    1.7919812351e-02    9.0411476562e+04
    1.7929902300e-02    9.0389304688e+04
    1.7939992249e-02    9.0366562500e+04
    1.7949817702e-02    9.0345414062e+04
    1.7959913239e-02    9.0323632812e+04
    1.7969742417e-02    9.0301914062e+04
    1.7979837954e-02    9.0280101562e+04
    1.7989937216e-02    9.0258460938e+04
    1.7999766394e-02    9.0236812500e+04
    1.8009865656e-02    9.0215437500e+04
    1.8019968644e-02    9.0193742188e+04
    1.8029807135e-02    9.0172851562e+04
    1.8039913848e-02    9.0151601562e+04
    1.8049754202e-02    9.0130585938e+04
    1.8059860915e-02    9.0109414062e+04
    1.8069969490e-02    9.0088031250e+04
    1.8079815432e-02    9.0067585938e+04
    1.8089925870e-02    9.0046304688e+04
    1.8099777400e-02    9.0025851562e+04
    1.8109891564e-02    9.0004789062e+04
    1.8119743094e-02    8.9984476562e+04
    1.8129866570e-02    8.9963632812e+04
    1.8139986321e-02    8.9942851562e+04
    1.8149843439e-02    8.9922656250e+04
    1.8159970641e-02    8.9902070312e+04
    1.8169829622e-02    8.9882093750e+04
    1.8179958686e-02    8.9861601562e+04
    1.8189821392e-02    8.9841648438e+04
    1.8199954182e-02    8.9821460938e+04
    1.8209826201e-02    8.9801773438e+04
    1.8219962716e-02    8.9781304688e+04
    1.8229834735e-02    8.9761757812e+04
    1.8239974976e-02    8.9742164062e+04
    1.8249846995e-02    8.9722406250e+04
    1.8259989098e-02    8.9702007812e+04
    1.8269868568e-02    8.9683210938e+04
    1.8279749900e-02    8.9664179688e+04
    1.8289901316e-02    8.9643960938e+04
    1.8299788237e-02    8.9624679688e+04
    1.8309939653e-02    8.9605601562e+04
    1.8319828436e-02    8.9586460938e+04
    1.8329985440e-02    8.9566570312e+04
    1.8339877948e-02    8.9548132812e+04
    1.8349772319e-02    8.9529523438e+04
    1.8359934911e-02    8.9510148438e+04
    1.8369833007e-02    8.9491406250e+04
    1.8379999325e-02    8.9472593750e+04
    1.8389897421e-02    8.9453914062e+04
    1.8399799243e-02    8.9435476562e+04
    1.8409971148e-02    8.9416773438e+04
    1.8419876695e-02    8.9398593750e+04
    1.8429785967e-02    8.9380195312e+04
    1.8439965323e-02    8.9361726562e+04
    1.8449878320e-02    8.9343523438e+04
    1.8459795043e-02    8.9325570312e+04
    1.8469983712e-02    8.9307195312e+04
    1.8479902297e-02    8.9289210938e+04
    1.8489824608e-02    8.9271523438e+04
    1.8499745056e-02    8.9253789062e+04
    1.8509939313e-02    8.9235843750e+04
    1.8519867212e-02    8.9218335938e+04
    1.8529796973e-02    8.9200851562e+04
    1.8539996818e-02    8.9182960938e+04
    1.8549930304e-02    8.9165523438e+04
    1.8559861928e-02    8.9148226562e+04
    1.8569797277e-02    8.9131000000e+04
    1.8579736352e-02    8.9113960938e+04
    1.8589945510e-02    8.9096617188e+04
    1.8599890172e-02    8.9079656250e+04
    1.8609836698e-02    8.9062710938e+04
    1.8619781360e-02    8.9045898438e+04
    1.8629731610e-02    8.9029460938e+04
    1.8639950082e-02    8.9012085938e+04
    1.8649902195e-02    8.8995125000e+04
    1.8659858033e-02    8.8979093750e+04
    1.8669813871e-02    8.8962875000e+04
    1.8679773435e-02    8.8945648438e+04
    1.8689736724e-02    8.8929445312e+04
    1.8699968234e-02    8.8913242188e+04
    1.8709933385e-02    8.8896343750e+04
    1.8719900399e-02    8.8880210938e+04
    1.8729871139e-02    8.8864523438e+04
    1.8739843741e-02    8.8848601562e+04
    1.8749816343e-02    8.8832539062e+04
    1.8759792671e-02    8.8816695312e+04
    1.8769772723e-02    8.8801195312e+04
    1.8779752776e-02    8.8785281250e+04
    1.8789736554e-02    8.8769804688e+04
    1.8799992278e-02    8.8753968750e+04
    1.8809977919e-02    8.8738500000e+04
    1.8819967285e-02    8.8723023438e+04
    1.8829958513e-02    8.8707843750e+04
    1.8839953467e-02    8.8692476562e+04
    1.8849952146e-02    8.8677335938e+04
    1.8859952688e-02    8.8662179688e+04
    1.8869953230e-02    8.8647070312e+04
    1.8879957497e-02    8.8632117188e+04
    1.8889959902e-02    8.8617156250e+04
    1.8899967894e-02    8.8602351562e+04
    1.8909977749e-02    8.8587648438e+04
    1.8919993192e-02    8.8572976562e+04
    1.8929738551e-02    8.8558835938e+04
    1.8939757720e-02    8.8544226562e+04
    1.8949775025e-02    8.8529742188e+04
    1.8959797919e-02    8.8515304688e+04
    1.8969822675e-02    8.8501101562e+04
    1.8979849294e-02    8.8486960938e+04
    1.8989881501e-02    8.8472695312e+04
    1.8999913707e-02    8.8458414062e+04
    1.9009949639e-02    8.8444437500e+04
    1.9019989297e-02    8.8430664062e+04
    1.9029757008e-02    8.8416812500e+04
    1.9039800391e-02    8.8402875000e+04
    1.9049847499e-02    8.8389617188e+04
    1.9059894606e-02    8.8375812500e+04
    1.9069947302e-02    8.8361539062e+04
    1.9079728052e-02    8.8348835938e+04
    1.9089786336e-02    8.8335664062e+04
    1.9099848345e-02    8.8321648438e+04
    1.9109912217e-02    8.8308492188e+04
    1.9119977951e-02    8.8295593750e+04
    1.9129771739e-02    8.8282539062e+04
    1.9139839336e-02    8.8269226562e+04
    1.9149912521e-02    8.8256460938e+04
    1.9159989432e-02    8.8243460938e+04
    1.9169794396e-02    8.8230742188e+04
    1.9179876894e-02    8.8217914062e+04
    1.9189959392e-02    8.8205125000e+04
    1.9199769944e-02    8.8192695312e+04
    1.9209856167e-02    8.8179976562e+04
    1.9219944254e-02    8.8167476562e+04
    1.9229764119e-02    8.8155039062e+04
    1.9239857793e-02    8.8142710938e+04
    1.9249955192e-02    8.8130210938e+04
    1.9259780645e-02    8.8118312500e+04
    1.9269879907e-02    8.8106085938e+04
    1.9279981032e-02    8.8093882812e+04
    1.9289810210e-02    8.8082039062e+04
    1.9299913198e-02    8.8070023438e+04
    1.9309746101e-02    8.8058492188e+04
    1.9319854677e-02    8.8046835938e+04
    1.9329965115e-02    8.8035179688e+04
    1.9339803606e-02    8.8023882812e+04
    1.9349915907e-02    8.8012320312e+04
    1.9359758124e-02    8.8001218750e+04
    1.9369876012e-02    8.7989843750e+04
    1.9379995763e-02    8.7978414062e+04
    1.9389843568e-02    8.7967429688e+04
    1.9399968907e-02    8.7956335938e+04
    1.9409824163e-02    8.7945382812e+04
    1.9419955090e-02    8.7933851562e+04
    1.9429808483e-02    8.7923312500e+04
    1.9439930096e-02    8.7912726562e+04
[...]
    1.1513997614e-01    1.0122039844e+05
    1.1514981091e-01    1.0122039844e+05
    1.1515995860e-01    1.0122038281e+05
    1.1516980082e-01    1.0122037500e+05
    1.1517994851e-01    1.0122037500e+05
    1.1518979073e-01    1.0122036719e+05
    1.1519993842e-01    1.0122035156e+05
    1.1520977318e-01    1.0122035156e+05
    1.1521992087e-01    1.0122035156e+05
    1.1522976309e-01    1.0122034375e+05
    1.1523991078e-01    1.0122034375e+05
    1.1524975300e-01    1.0122033594e+05
    1.1525990069e-01    1.0122033594e+05
    1.1526974291e-01    1.0122033594e+05
    1.1527989060e-01    1.0122032031e+05
    1.1528972536e-01    1.0122031250e+05
    1.1529987305e-01    1.0122031250e+05
    1.1530971527e-01    1.0122030469e+05
    1.1531986296e-01    1.0122028906e+05
    1.1532970518e-01    1.0122028906e+05
    1.1533985287e-01    1.0122028906e+05
    1.1535000056e-01    1.0122028125e+05
    1.1535984278e-01    1.0122027344e+05
    1.1536999047e-01    1.0122027344e+05
    1.1537982523e-01    1.0122027344e+05
    1.1538997293e-01    1.0122025781e+05
    1.1539981514e-01    1.0122025781e+05
    1.1540996283e-01    1.0122025000e+05
    1.1541980505e-01    1.0122024219e+05
    1.1542995274e-01    1.0122024219e+05
    1.1543979496e-01    1.0122022656e+05
    1.1544994265e-01    1.0122022656e+05
    1.1545977741e-01    1.0122022656e+05
    1.1546992511e-01    1.0122021875e+05
    1.1547976732e-01    1.0122021094e+05
    1.1548991501e-01    1.0122021094e+05
    1.1549975723e-01    1.0122021094e+05
    1.1550990492e-01    1.0122019531e+05
    1.1551973969e-01    1.0122019531e+05
    1.1552988738e-01    1.0122018750e+05
    1.1553972960e-01    1.0122017969e+05
    1.1554987729e-01    1.0122017969e+05
    1.1555971950e-01    1.0122016406e+05
    1.1556986719e-01    1.0122016406e+05
    1.1557970941e-01    1.0122016406e+05
    1.1558985710e-01    1.0122015625e+05
    1.1559969187e-01    1.0122014844e+05
    1.1560983956e-01    1.0122014844e+05
    1.1561998725e-01    1.0122014844e+05
    1.1562982947e-01    1.0122014844e+05
    1.1563997716e-01    1.0122013281e+05
    1.1564981937e-01    1.0122012500e+05
    1.1565996706e-01    1.0122012500e+05
    1.1566980928e-01    1.0122011719e+05
    1.1567995697e-01    1.0122010156e+05
    1.1568979174e-01    1.0122010156e+05
    1.1569993943e-01    1.0122010156e+05
    1.1570978165e-01    1.0122009375e+05
    1.1571992934e-01    1.0122009375e+05
    1.1572977155e-01    1.0122008594e+05
    1.1573991925e-01    1.0122008594e+05
    1.1574976146e-01    1.0122007031e+05
    1.1575990915e-01    1.0122007031e+05
    1.1576974392e-01    1.0122006250e+05
    1.1577989161e-01    1.0122005469e+05
    1.1578973383e-01    1.0122003906e+05
    1.1579988152e-01    1.0122003906e+05
    1.1580972373e-01    1.0122003906e+05
    1.1581987143e-01    1.0122003125e+05
    1.1582970619e-01    1.0122003125e+05
    1.1583985388e-01    1.0122002344e+05
    1.1584969610e-01    1.0122002344e+05
    1.1585984379e-01    1.0122002344e+05
    1.1586999148e-01    1.0122000781e+05
    1.1587983370e-01    1.0122000781e+05
    1.1588998139e-01    1.0122000000e+05
    1.1589982361e-01    1.0122000000e+05
    1.1590997130e-01    1.0121999219e+05
    1.1591980606e-01    1.0121997656e+05
    1.1592995375e-01    1.0121997656e+05
    1.1593979597e-01    1.0121997656e+05
    1.1594994366e-01    1.0121996875e+05
    1.1595978588e-01    1.0121996094e+05
    1.1596993357e-01    1.0121996094e+05
    1.1597977579e-01    1.0121994531e+05
    1.1598992348e-01    1.0121993750e+05
    1.1599975824e-01    1.0121992969e+05
    1.1600990593e-01    1.0121991406e+05
    1.1601974815e-01    1.0121991406e+05
    1.1602989584e-01    1.0121990625e+05
    1.1603973806e-01    1.0121990625e+05
    1.1604988575e-01    1.0121990625e+05
    1.1605972797e-01    1.0121989844e+05
    1.1606987566e-01    1.0121989844e+05
    1.1607971042e-01    1.0121989844e+05
    1.1608985811e-01    1.0121989844e+05
    1.1609970033e-01    1.0121989844e+05
    1.1610984802e-01    1.0121988281e+05
    1.1611999571e-01    1.0121987500e+05
    1.1612983793e-01    1.0121986719e+05
    1.1613998562e-01    1.0121986719e+05
    1.1614982039e-01    1.0121985156e+05
    1.1615996808e-01    1.0121985156e+05
    1.1616981030e-01    1.0121985156e+05
    1.1617995799e-01    1.0121985156e+05
    1.1618980020e-01    1.0121985156e+05
    1.1619994789e-01    1.0121985156e+05
    1.1620979011e-01    1.0121985156e+05
    1.1621993780e-01    1.0121985156e+05
    1.1622977257e-01    1.0121984375e+05
    1.1623992026e-01    1.0121983594e+05
    1.1624976248e-01    1.0121983594e+05
    1.1625991017e-01    1.0121983594e+05
    1.1626975238e-01    1.0121981250e+05
    1.1627990007e-01    1.0121980469e+05
    1.1628974229e-01    1.0121978906e+05
    1.1629988998e-01    1.0121978906e+05
    1.1630972475e-01    1.0121978125e+05
    1.1631987244e-01    1.0121978125e+05
    1.1632971466e-01    1.0121977344e+05
    1.1633986235e-01    1.0121977344e+05
    1.1634970456e-01    1.0121977344e+05
    1.1635985225e-01    1.0121975781e+05
    1.1636999995e-01    1.0121975781e+05
    1.1637984216e-01    1.0121975000e+05
    1.1638998985e-01    1.0121974219e+05
    1.1639982462e-01    1.0121974219e+05
    1.1640997231e-01    1.0121972656e+05
    1.1641981453e-01    1.0121972656e+05
    1.1642996222e-01    1.0121971875e+05
    1.1643980443e-01    1.0121971094e+05
    1.1644995213e-01    1.0121971094e+05
    1.1645978689e-01    1.0121971094e+05
    1.1646993458e-01    1.0121969531e+05
    1.1647977680e-01    1.0121968750e+05
    1.1648992449e-01    1.0121968750e+05
    1.1649976671e-01    1.0121968750e+05
    1.1650991440e-01    1.0121967969e+05
    1.1651975662e-01    1.0121967969e+05
    1.1652990431e-01    1.0121966406e+05
    1.1653973907e-01    1.0121966406e+05
    1.1654988676e-01    1.0121966406e+05
    1.1655972898e-01    1.0121965625e+05
    1.1656987667e-01    1.0121965625e+05
    1.1657971889e-01    1.0121964844e+05
    1.1658986658e-01    1.0121964844e+05
    1.1659970880e-01    1.0121964844e+05
    1.1660985649e-01    1.0121963281e+05
    1.1661969125e-01    1.0121963281e+05
    1.1662983894e-01    1.0121962500e+05
    1.1663998663e-01    1.0121962500e+05
    1.1664982885e-01    1.0121961719e+05
    1.1665997654e-01    1.0121960156e+05
    1.1666981876e-01    1.0121960156e+05
    1.1667996645e-01    1.0121959375e+05
    1.1668980867e-01    1.0121958594e+05
    1.1669995636e-01    1.0121958594e+05
    1.1670979112e-01    1.0121958594e+05
    1.1671993881e-01    1.0121957031e+05
    1.1672978103e-01    1.0121957031e+05
    1.1673992872e-01    1.0121956250e+05
    1.1674977094e-01    1.0121956250e+05
    1.1675991863e-01    1.0121955469e+05
    1.1676975340e-01    1.0121955469e+05
    1.1677990109e-01    1.0121953906e+05
    1.1678974330e-01    1.0121953906e+05
    1.1679989100e-01    1.0121953906e+05
    1.1680973321e-01    1.0121953906e+05
    1.1681988090e-01    1.0121953906e+05
    1.1682972312e-01    1.0121953125e+05
    1.1683987081e-01    1.0121953125e+05
    1.1684970558e-01    1.0121952344e+05
    1.1685985327e-01    1.0121952344e+05
    1.1686969548e-01    1.0121952344e+05
    1.1687984318e-01    1.0121950781e+05
    1.1688999087e-01    1.0121950000e+05
    1.1689983308e-01    1.0121949219e+05
    1.1690998077e-01    1.0121947656e+05
    1.1691982299e-01    1.0121947656e+05
    1.1692997068e-01    1.0121946875e+05
    1.1693980545e-01    1.0121946094e+05
    1.1694995314e-01    1.0121946094e+05
    1.1695979536e-01    1.0121946094e+05
    1.1696994305e-01    1.0121944531e+05
    1.1697978526e-01    1.0121944531e+05
    1.1698993295e-01    1.0121943750e+05
    1.1699977517e-01    1.0121943750e+05
    1.1700992286e-01    1.0121942969e+05
    1.1701975763e-01    1.0121942969e+05
    1.1702990532e-01    1.0121941406e+05
    1.1703974754e-01    1.0121941406e+05
    1.1704989523e-01    1.0121941406e+05
    1.1705973744e-01    1.0121940625e+05
    1.1706988513e-01    1.0121939844e+05
    1.1707972735e-01    1.0121939844e+05
    1.1708987504e-01    1.0121939844e+05
    1.1709970981e-01    1.0121938281e+05
    1.1710985750e-01    1.0121937500e+05
    1.1711969972e-01    1.0121936719e+05
    1.1712984741e-01    1.0121936719e+05
    1.1713999510e-01    1.0121935156e+05
    1.1714983732e-01    1.0121935156e+05
    1.1715998501e-01    1.0121935156e+05
    1.1716982722e-01    1.0121935156e+05
    1.1717997491e-01    1.0121934375e+05
    1.1718980968e-01    1.0121933594e+05
    1.1719995737e-01    1.0121933594e+05
    1.1720979959e-01    1.0121933594e+05
    1.1721994728e-01    1.0121932031e+05
    1.1722978950e-01    1.0121932031e+05
    1.1723993719e-01    1.0121931250e+05
    1.1724977195e-01    1.0121931250e+05
    1.1725991964e-01    1.0121930469e+05
    1.1726976186e-01    1.0121930469e+05
    1.1727990955e-01    1.0121928906e+05
    1.1728975177e-01    1.0121928906e+05
    1.1729989946e-01    1.0121928906e+05
    1.1730974168e-01    1.0121928906e+05
    1.1731988937e-01    1.0121928125e+05
    1.1732972413e-01    1.0121927344e+05
    1.1733987182e-01    1.0121927344e+05
    1.1734971404e-01    1.0121925781e+05
    1.1735986173e-01    1.0121925781e+05
    1.1736970395e-01    1.0121925000e+05
    1.1737985164e-01    1.0121925000e+05
    1.1738999933e-01    1.0121925000e+05
    1.1739984155e-01    1.0121924219e+05
    1.1740998924e-01    1.0121924219e+05
    1.1741982400e-01    1.0121924219e+05
    1.1742997169e-01    1.0121922656e+05
    1.1743981391e-01    1.0121922656e+05
    1.1744996160e-01    1.0121921875e+05
    1.1745980382e-01    1.0121921094e+05
    1.1746995151e-01    1.0121921094e+05
    1.1747979373e-01    1.0121919531e+05
    1.1748994142e-01    1.0121918750e+05
    1.1749977618e-01    1.0121917969e+05
    1.1750992388e-01    1.0121916406e+05
    1.1751976609e-01    1.0121916406e+05
    1.1752991378e-01    1.0121916406e+05
    1.1753975600e-01    1.0121916406e+05
    1.1754990369e-01    1.0121915625e+05
    1.1755974591e-01    1.0121915625e+05
    1.1756989360e-01    1.0121915625e+05
    1.1757972836e-01    1.0121915625e+05
    1.1758987606e-01    1.0121914844e+05
    1.1759971827e-01    1.0121914844e+05
    1.1760986596e-01    1.0121914844e+05
    1.1761970818e-01    1.0121913281e+05
    1.1762985587e-01    1.0121913281e+05
    1.1763969809e-01    1.0121912500e+05
    1.1764984578e-01    1.0121911719e+05
    1.1765999347e-01    1.0121910156e+05
    1.1766982824e-01    1.0121910156e+05
    1.1767997593e-01    1.0121910156e+05
    1.1768981814e-01    1.0121909375e+05
    1.1769996583e-01    1.0121908594e+05
    1.1770980805e-01    1.0121908594e+05
    1.1771995574e-01    1.0121908594e+05
    1.1772979796e-01    1.0121907031e+05
    1.1773994565e-01    1.0121907031e+05
    1.1774978042e-01    1.0121906250e+05
    1.1775992811e-01    1.0121906250e+05
    1.1776977032e-01    1.0121905469e+05
    1.1777991802e-01    1.0121905469e+05
    1.1778976023e-01    1.0121903906e+05
    1.1779990792e-01    1.0121903906e+05
    1.1780975014e-01    1.0121903906e+05
    1.1781989783e-01    1.0121903125e+05
    1.1782973260e-01    1.0121903125e+05
    1.1783988029e-01    1.0121902344e+05
    1.1784972250e-01    1.0121902344e+05
    1.1785987020e-01    1.0121902344e+05
    1.1786971241e-01    1.0121900781e+05
    1.1787986010e-01    1.0121900000e+05
    1.1788970232e-01    1.0121900000e+05
    1.1789985001e-01    1.0121899219e+05
    1.1790999770e-01    1.0121899219e+05
    1.1791983247e-01    1.0121897656e+05
    1.1792998016e-01    1.0121897656e+05
    1.1793982238e-01    1.0121897656e+05
    1.1794997007e-01    1.0121896875e+05
    1.1795981228e-01    1.0121896094e+05
    1.1796995997e-01    1.0121896094e+05
    1.1797979474e-01    1.0121896094e+05
    1.1798994988e-01    1.0121896094e+05
    1.1799978465e-01    1.0121894531e+05
    1.1800993234e-01    1.0121894531e+05
    1.1801977456e-01    1.0121893750e+05
    1.1802992225e-01    1.0121892969e+05
    1.1803976446e-01    1.0121892969e+05
    1.1804991215e-01    1.0121891406e+05
    1.1805974692e-01    1.0121891406e+05
    1.1806989461e-01    1.0121891406e+05
    1.1807973683e-01    1.0121890625e+05
    1.1808988452e-01    1.0121890625e+05
    1.1809972674e-01    1.0121889844e+05
    1.1810987443e-01    1.0121889844e+05
    1.1811971664e-01    1.0121888281e+05
    1.1812986434e-01    1.0121888281e+05
    1.1813969910e-01    1.0121887500e+05
    1.1814984679e-01    1.0121887500e+05
    1.1815999448e-01    1.0121886719e+05
    1.1816983670e-01    1.0121885156e+05
    1.1817998439e-01    1.0121885156e+05
    1.1818982661e-01    1.0121885156e+05
    1.1819997430e-01    1.0121885156e+05
    1.1820981652e-01    1.0121884375e+05
    1.1821996421e-01    1.0121884375e+05
    1.1822979897e-01    1.0121883594e+05
    1.1823994666e-01    1.0121883594e+05
    1.1824978888e-01    1.0121883594e+05
    1.1825993657e-01    1.0121882031e+05
    1.1826977879e-01    1.0121882031e+05
    1.1827992648e-01    1.0121881250e+05
    1.1828976870e-01    1.0121880469e+05
    1.1829991639e-01    1.0121880469e+05
    1.1830975115e-01    1.0121878906e+05
    1.1831989884e-01    1.0121878906e+05
    1.1832974106e-01    1.0121878906e+05
    1.1833988875e-01    1.0121878125e+05
    1.1834973097e-01    1.0121878125e+05
    1.1835987866e-01    1.0121877344e+05
    1.1836972088e-01    1.0121877344e+05
    1.1837986857e-01    1.0121877344e+05
    1.1838970333e-01    1.0121877344e+05
    1.1839985102e-01    1.0121875781e+05
    1.1840969324e-01    1.0121875000e+05
    1.1841984093e-01    1.0121875000e+05
    1.1842998862e-01    1.0121874219e+05
    1.1843983084e-01    1.0121872656e+05
    1.1844997853e-01    1.0121872656e+05
    1.1845982075e-01    1.0121872656e+05
    1.1846996844e-01    1.0121871875e+05
    1.1847980320e-01    1.0121871875e+05
    1.1848995090e-01    1.0121871094e+05
    1.1849979311e-01    1.0121871094e+05
    1.1850994080e-01    1.0121871094e+05
    1.1851978302e-01    1.0121869531e+05
    1.1852993071e-01    1.0121869531e+05
    1.1853977293e-01    1.0121868750e+05
    1.1854992062e-01    1.0121868750e+05
    1.1855975538e-01    1.0121867969e+05
    1.1856990308e-01    1.0121867969e+05
    1.1857974529e-01    1.0121866406e+05
    1.1858989298e-01    1.0121866406e+05
    1.1859973520e-01    1.0121866406e+05
    1.1860988289e-01    1.0121865625e+05
    1.1861972511e-01    1.0121864844e+05
    1.1862987280e-01    1.0121864844e+05
    1.1863970757e-01    1.0121864844e+05
    1.1864985526e-01    1.0121864844e+05
    1.1865969747e-01    1.0121863281e+05
    1.1866984516e-01    1.0121862500e+05
    1.1867999285e-01    1.0121862500e+05
    1.1868983507e-01    1.0121861719e+05
    1.1869998276e-01    1.0121861719e+05
    1.1870982498e-01    1.0121860156e+05
    1.1871997267e-01    1.0121860156e+05
    1.1872980744e-01    1.0121860156e+05
    1.1873995513e-01    1.0121859375e+05
    1.1874979734e-01    1.0121859375e+05
    1.1875994503e-01    1.0121858594e+05
    1.1876978725e-01    1.0121858594e+05
    1.1877993494e-01    1.0121858594e+05
    1.1878976971e-01    1.0121857031e+05
    1.1879991740e-01    1.0121856250e+05
    1.1880975962e-01    1.0121856250e+05
    1.1881990731e-01    1.0121855469e+05
    1.1882974952e-01    1.0121855469e+05
    1.1883989722e-01    1.0121853906e+05
    1.1884973943e-01    1.0121853906e+05
    1.1885988712e-01    1.0121853906e+05
    1.1886972189e-01    1.0121853125e+05
    1.1887986958e-01    1.0121853125e+05
    1.1888971180e-01    1.0121852344e+05
    1.1889985949e-01    1.0121852344e+05
    1.1890970170e-01    1.0121852344e+05
    1.1891984940e-01    1.0121850781e+05
    1.1892999709e-01    1.0121850781e+05
    1.1893983930e-01    1.0121850000e+05
    1.1894998699e-01    1.0121849219e+05
    1.1895982176e-01    1.0121849219e+05
    1.1896996945e-01    1.0121847656e+05
    1.1897981167e-01    1.0121847656e+05
    1.1898995936e-01    1.0121847656e+05
    1.1899980158e-01    1.0121846875e+05
    1.1900994927e-01    1.0121846875e+05
    1.1901979148e-01    1.0121846094e+05
    1.1902993917e-01    1.0121846094e+05
    1.1903977394e-01    1.0121846094e+05
    1.1904992163e-01    1.0121844531e+05
    1.1905976385e-01    1.0121844531e+05
    1.1906991154e-01    1.0121843750e+05
    1.1907975376e-01    1.0121843750e+05
    1.1908990145e-01    1.0121842969e+05
    1.1909974366e-01    1.0121841406e+05
    1.1910989136e-01    1.0121841406e+05
    1.1911972612e-01    1.0121841406e+05
    1.1912987381e-01    1.0121841406e+05
    1.1913971603e-01    1.0121840625e+05
    1.1914986372e-01    1.0121839844e+05
    1.1915970594e-01    1.0121839844e+05
    1.1916985363e-01    1.0121839844e+05
    1.1917969584e-01    1.0121839844e+05
    1.1918984354e-01    1.0121838281e+05
    1.1919999123e-01    1.0121837500e+05
    1.1920982599e-01    1.0121837500e+05
    1.1921997368e-01    1.0121836719e+05
    1.1922981590e-01    1.0121836719e+05
    1.1923996359e-01    1.0121835156e+05
    1.1924980581e-01    1.0121835156e+05
    1.1925995350e-01    1.0121835156e+05
    1.1926979572e-01    1.0121834375e+05
    1.1927994341e-01    1.0121834375e+05
    1.1928977817e-01    1.0121833594e+05
    1.1929992586e-01    1.0121833594e+05
    1.1930976808e-01    1.0121833594e+05
    1.1931991577e-01    1.0121832031e+05
    1.1932975799e-01    1.0121832031e+05
    1.1933990568e-01    1.0121831250e+05
    1.1934974790e-01    1.0121831250e+05
    1.1935989559e-01    1.0121830469e+05
    1.1936973035e-01    1.0121828906e+05
    1.1937987804e-01    1.0121828906e+05
    1.1938972026e-01    1.0121828906e+05
    1.1939986795e-01    1.0121828906e+05
    1.1940971017e-01    1.0121828125e+05
    1.1941985786e-01    1.0121828125e+05
    1.1942970008e-01    1.0121827344e+05
    1.1943984777e-01    1.0121827344e+05
    1.1944999546e-01    1.0121827344e+05
    1.1945983022e-01    1.0121825781e+05
    1.1946997792e-01    1.0121825781e+05
    1.1947982013e-01    1.0121825000e+05
    1.1948996782e-01    1.0121825000e+05
    1.1949981004e-01    1.0121824219e+05
    1.1950995773e-01    1.0121822656e+05
    1.1951979995e-01    1.0121822656e+05
    1.1952994764e-01    1.0121822656e+05
    1.1953978240e-01    1.0121822656e+05
    1.1954993010e-01    1.0121821875e+05
    1.1955977231e-01    1.0121821094e+05
    1.1956992000e-01    1.0121821094e+05
    1.1957976222e-01    1.0121821094e+05
    1.1958990991e-01    1.0121819531e+05
    1.1959975213e-01    1.0121819531e+05
    1.1960989982e-01    1.0121818750e+05
    1.1961973459e-01    1.0121817969e+05
    1.1962988228e-01    1.0121817969e+05
    1.1963972449e-01    1.0121816406e+05
    1.1964987218e-01    1.0121816406e+05
    1.1965971440e-01    1.0121816406e+05
    1.1966986209e-01    1.0121815625e+05
    1.1967970431e-01    1.0121815625e+05
    1.1968985200e-01    1.0121814844e+05
    1.1969999969e-01    1.0121814844e+05
    1.1970983446e-01    1.0121814844e+05
    1.1971998215e-01    1.0121814844e+05
    1.1972982436e-01    1.0121813281e+05
    1.1973997205e-01    1.0121812500e+05
    1.1974981427e-01    1.0121812500e+05
    1.1975996196e-01    1.0121811719e+05
    1.1976979673e-01    1.0121810156e+05
    1.1977995187e-01    1.0121810156e+05
    1.1978978664e-01    1.0121810156e+05
    1.1979993433e-01    1.0121809375e+05
    1.1980977654e-01    1.0121808594e+05
    1.1981992424e-01    1.0121808594e+05
    1.1982976645e-01    1.0121808594e+05
    1.1983991414e-01    1.0121808594e+05
    1.1984974891e-01    1.0121807031e+05
    1.1985989660e-01    1.0121807031e+05
    1.1986973882e-01    1.0121806250e+05
    1.1987988651e-01    1.0121806250e+05
    1.1988972872e-01    1.0121806250e+05
    1.1989987642e-01    1.0121805469e+05
    1.1990971863e-01    1.0121805469e+05
    1.1991986632e-01    1.0121805469e+05
    1.1992970109e-01    1.0121803906e+05
    1.1993984878e-01    1.0121803906e+05
    1.1994999647e-01    1.0121803906e+05
    1.1995983869e-01    1.0121803906e+05
    1.1996998638e-01    1.0121803125e+05
    1.1997982860e-01    1.0121803125e+05
    1.1998997629e-01    1.0121802344e+05
    1.1999981850e-01    1.0121802344e+05
endcurve
