Curveplot
LS-DYNA keyword deck by LS-PrePost                          
Time
Pressure
Defined Connection
Pressure @ 17 #pts=12001
* Minval=     8.7561679688e+04 at time=         0.0263499524
* Maxval=     1.5820092188e+05 at time=         0.0136698987
    0.0000000000e+00    1.0120000000e+05
    9.9485332612e-06    1.0120000000e+05
    1.9897432139e-05    1.0120000000e+05
    2.9971386539e-05    1.0120000000e+05
    3.9973368985e-05    1.0120000000e+05
    4.9943198974e-05    1.0120000000e+05
    5.9965623223e-05    1.0120000000e+05
    6.9976253144e-05    1.0120000000e+05
    7.9990575614e-05    1.0120000000e+05
    8.9957939053e-05    1.0120000000e+05
    9.9945427792e-05    1.0120000000e+05
    1.0993870819e-04    1.0120000000e+05
    1.1999684648e-04    1.0120000000e+05
    1.2996609439e-04    1.0120000000e+05
    1.3998294889e-04    1.0120000000e+05
    1.4996352547e-04    1.0120000000e+05
    1.5997549053e-04    1.0120000000e+05
    1.6993218742e-04    1.0120000000e+05
    1.7998401017e-04    1.0120000000e+05
    1.8996330618e-04    1.0120000000e+05
    1.9994248578e-04    1.0120000000e+05
    2.0999890694e-04    1.0120000000e+05
    2.1995598217e-04    1.0120000000e+05
    2.2997806082e-04    1.0120000000e+05
    2.3997189419e-04    1.0120000000e+05
    2.4992978433e-04    1.0120000000e+05
    2.5993507006e-04    1.0120000000e+05
    2.6998357498e-04    1.0120000000e+05
    2.7997590951e-04    1.0120000000e+05
    2.8999589267e-04    1.0120000000e+05
    2.9993345379e-04    1.0120000000e+05
    3.0997252907e-04    1.0120000000e+05
    3.1991861761e-04    1.0120000000e+05
    3.2996505615e-04    1.0120000000e+05
    3.3991225064e-04    1.0120000000e+05
    3.4995726310e-04    1.0120000000e+05
    3.5989971366e-04    1.0120000000e+05
    3.6993919639e-04    1.0120000000e+05
    3.7997300387e-04    1.0120000000e+05
    3.8999595563e-04    1.0120000000e+05
    3.9990732330e-04    1.0120000000e+05
    4.0991301648e-04    1.0120000000e+05
    4.1990622412e-04    1.0120000000e+05
    4.2999250581e-04    1.0120000000e+05
    4.3995690066e-04    1.0120000000e+05
    4.4990383321e-04    1.0120000000e+05
    4.5994363609e-04    1.0120000000e+05
    4.6996455058e-04    1.0120000000e+05
    4.7996279318e-04    1.0120000000e+05
    4.8994028475e-04    1.0120000000e+05
    4.9989321269e-04    1.0120000000e+05
    5.0993711920e-04    1.0120000000e+05
    5.1995500689e-04    1.0120000000e+05
    5.2994280122e-04    1.0120000000e+05
    5.3990283050e-04    1.0120000000e+05
    5.4995267419e-04    1.0120000000e+05
    5.5997096933e-04    1.0120000000e+05
    5.6995585328e-04    1.0120000000e+05
    5.7990441564e-04    1.0120000000e+05
    5.8993889252e-04    1.0120000000e+05
    5.9994001640e-04    1.0120000000e+05
    6.0990208294e-04    1.0120000000e+05
    6.1995239230e-04    1.0120000000e+05
    6.2996172346e-04    1.0120000000e+05
    6.3992803916e-04    1.0120000000e+05
    6.4997939626e-04    1.0120000000e+05
    6.5998837817e-04    1.0120000000e+05
    6.6995003726e-04    1.0120000000e+05
    6.7999865860e-04    1.0120000000e+05
    6.8999791984e-04    1.0120000000e+05
    6.9994560909e-04    1.0120000000e+05
    7.0997932926e-04    1.0120000000e+05
    7.1995606413e-04    1.0120000000e+05
    7.2987953899e-04    1.0120000000e+05
    7.3988793883e-04    1.0120000000e+05
    7.4998242781e-04    1.0120000000e+05
    7.5987220043e-04    1.0120000000e+05
    7.6999276644e-04    1.0120000000e+05
    7.7990361024e-04    1.0120000000e+05
    7.8989786562e-04    1.0120000000e+05
    7.9997378634e-04    1.0120000000e+05
    8.0998562044e-04    1.0120000000e+05
    8.1992882770e-04    1.0120000000e+05
    8.2995509729e-04    1.0120000000e+05
    8.3990924759e-04    1.0120000000e+05
    8.4994611097e-04    1.0120000000e+05
    8.5990788648e-04    1.0120000000e+05
    8.6995196762e-04    1.0120000000e+05
    8.7991799228e-04    1.0120000000e+05
    8.8996574050e-04    1.0120000000e+05
    8.9993199799e-04    1.0120000000e+05
    9.0997497318e-04    1.0120000000e+05
    9.1993785463e-04    1.0120000000e+05
    9.2998135369e-04    1.0120000000e+05
    9.3993690098e-04    1.0120000000e+05
    9.4997236738e-04    1.0120000000e+05
    9.5991650596e-04    1.0120000000e+05
    9.6993974876e-04    1.0120000000e+05
    9.7986799665e-04    1.0120000000e+05
    9.8987459205e-04    1.0120000000e+05
    9.9996034987e-04    1.0120000000e+05
    1.0099470383e-03    1.0120000000e+05
    1.0198315140e-03    1.0120000000e+05
    1.0299740825e-03    1.0120000000e+05
    1.0398301529e-03    1.0120000000e+05
    1.0499393102e-03    1.0120000000e+05
    1.0599483503e-03    1.0120000000e+05
    1.0698473779e-03    1.0120000000e+05
    1.0798218427e-03    1.0120000000e+05
    1.0898725595e-03    1.0120000000e+05
    1.0998088401e-03    1.0120000000e+05
    1.1098205578e-03    1.0120000000e+05
    1.1199085275e-03    1.0120000000e+05
    1.1298777536e-03    1.0120000000e+05
    1.1399219511e-03    1.0120000000e+05
    1.1498434469e-03    1.0120000000e+05
    1.1598390993e-03    1.0120000000e+05
    1.1699099559e-03    1.0120000000e+05
    1.1798533378e-03    1.0120000000e+05
    1.1898708763e-03    1.0120000000e+05
    1.1999633862e-03    1.0120000000e+05
    1.2099236483e-03    1.0120000000e+05
    1.2199580669e-03    1.0120000000e+05
    1.2298560468e-03    1.0120000000e+05
    1.2398266699e-03    1.0120000000e+05
    1.2498713331e-03    1.0120000000e+05
    1.2599906186e-03    1.0120000000e+05
    1.2699678773e-03    1.0120000000e+05
    1.2797996169e-03    1.0120000000e+05
    1.2899236754e-03    1.0120000000e+05
    1.2999008177e-03    1.0120000000e+05
    1.3099514181e-03    1.0120000000e+05
    1.3198507950e-03    1.0120000000e+05
    1.3298221165e-03    1.0120000000e+05
    1.3398661977e-03    1.0120000000e+05
    1.3499854831e-03    1.0120000000e+05
    1.3599463273e-03    1.0120000000e+05
    1.3699801639e-03    1.0120000000e+05
    1.3798533473e-03    1.0120000000e+05
    1.3897980098e-03    1.0120000000e+05
    1.3998145005e-03    1.0120000000e+05
    1.4099047985e-03    1.0120000000e+05
    1.4198274584e-03    1.0120000000e+05
    1.4298221795e-03    1.0120000000e+05
    1.4398888452e-03    1.0120000000e+05
    1.4497815864e-03    1.0120000000e+05
    1.4599971473e-03    1.0120000000e+05
    1.4697844163e-03    1.0120000000e+05
    1.4798961347e-03    1.0120000000e+05
    1.4898275258e-03    1.0120000000e+05
    1.4998309780e-03    1.0120000000e+05
    1.5099077718e-03    1.0120000000e+05
    1.5197979519e-03    1.0120000000e+05
    1.5297600767e-03    1.0120000000e+05
    1.5397953102e-03    1.0120000000e+05
    1.5499043511e-03    1.0120000000e+05
    1.5598195605e-03    1.0120000000e+05
    1.5698075294e-03    1.0120000000e+05
    1.5798688401e-03    1.0120000000e+05
    1.5897299163e-03    1.0120000000e+05
    1.5999395400e-03    1.0120000000e+05
    1.6099475324e-03    1.0120000000e+05
    1.6197485384e-03    1.0120000000e+05
    1.6299035633e-03    1.0120000000e+05
    1.6398497391e-03    1.0120000000e+05
    1.6498696059e-03    1.0120000000e+05
    1.6599640949e-03    1.0120000000e+05
    1.6698427498e-03    1.0120000000e+05
    1.6797940480e-03    1.0120000000e+05
    1.6898191534e-03    1.0120000000e+05
    1.6999196960e-03    1.0120000000e+05
    1.7097959062e-03    1.0120000000e+05
    1.7197454581e-03    1.0120000000e+05
    1.7297691666e-03    1.0120000000e+05
    1.7398686614e-03    1.0120000000e+05
    1.7497354420e-03    1.0120000000e+05
    1.7599875573e-03    1.0120000000e+05
    1.7696905416e-03    1.0120000000e+05
    1.7797804903e-03    1.0120000000e+05
    1.7899419181e-03    1.0120000000e+05
    1.7998676049e-03    1.0120000000e+05
    1.8098683795e-03    1.0120000000e+05
    1.8199454062e-03    1.0120000000e+05
    1.8297715578e-03    1.0120000000e+05
    1.8396720989e-03    1.0120000000e+05
    1.8499814905e-03    1.0120000000e+05
    1.8597004237e-03    1.0120000000e+05
    1.8698311178e-03    1.0120000000e+05
    1.8796997610e-03    1.0120000000e+05
    1.8899885472e-03    1.0120000000e+05
    1.8996659201e-03    1.0120000000e+05
    1.9097661134e-03    1.0120000000e+05
    1.9199461676e-03    1.0120000000e+05
    1.9298525294e-03    1.0120000000e+05
    1.9398363074e-03    1.0120000000e+05
    1.9498988986e-03    1.0120000000e+05
    1.9596752245e-03    1.0120000000e+05
    1.9698946271e-03    1.0120000000e+05
    1.9798304420e-03    1.0120000000e+05
    1.9898454193e-03    1.0120000000e+05
    1.9999409560e-03    1.0120000000e+05
    2.0097405650e-03    1.0120000000e+05
    2.0199990831e-03    1.0120000000e+05
    2.0299584139e-03    1.0120000000e+05
    2.0399987698e-03    1.0120000000e+05
    2.0497308578e-03    1.0120000000e+05
    2.0599346608e-03    1.0120000000e+05
    2.0698269363e-03    1.0120000000e+05
    2.0798004698e-03    1.0120000000e+05
    2.0898564253e-03    1.0120000000e+05
    2.0999922417e-03    1.0120000000e+05
    2.1098081488e-03    1.0120000000e+05
    2.1197048482e-03    1.0120000000e+05
    2.1296849009e-03    1.0120000000e+05
    2.1397490054e-03    1.0120000000e+05
    2.1498997230e-03    1.0120000000e+05
    2.1597102750e-03    1.0120000000e+05
    2.1696034819e-03    1.0120000000e+05
    2.1795732901e-03    1.0120000000e+05
    2.1895999089e-03    1.0120000000e+05
    2.1996644791e-03    1.0120000000e+05
    2.2097628098e-03    1.0120000000e+05
    2.2198890802e-03    1.0120000000e+05
    2.2296055686e-03    1.0120000000e+05
    2.2397993598e-03    1.0120000000e+05
    2.2499938495e-03    1.0120000000e+05
    2.2597436327e-03    1.0120000000e+05
    2.2699758410e-03    1.0120000000e+05
    2.2797330748e-03    1.0120000000e+05
    2.2899601609e-03    1.0120000000e+05
    2.2997076157e-03    1.0120000000e+05
    2.3099188693e-03    1.0120000000e+05
    2.3196917027e-03    1.0120000000e+05
    2.3298922461e-03    1.0120000000e+05
    2.3396564648e-03    1.0120000000e+05
    2.3498346563e-03    1.0120000000e+05
    2.3595916573e-03    1.0120000000e+05
    2.3697705474e-03    1.0120000000e+05
    2.3799363989e-03    1.0120000000e+05
    2.3896743078e-03    1.0120000000e+05
    2.3998904508e-03    1.0120000000e+05
    2.4096190464e-03    1.0120000000e+05
    2.4197427556e-03    1.0120000000e+05
    2.4298469070e-03    1.0120000000e+05
    2.4399589747e-03    1.0120000000e+05
    2.4497222621e-03    1.0120000000e+05
    2.4599332828e-03    1.0120000000e+05
    2.4697198533e-03    1.0120000000e+05
    2.4799662642e-03    1.0120000000e+05
    2.4898035917e-03    1.0120000000e+05
    2.4996297434e-03    1.0120000000e+05
    2.5099320337e-03    1.0120000000e+05
    2.5198035873e-03    1.0120000000e+05
    2.5296744425e-03    1.0120000000e+05
    2.5395788252e-03    1.0120000000e+05
    2.5499688927e-03    1.0120000000e+05
    2.5598986540e-03    1.0120000000e+05
    2.5698300451e-03    1.0120000000e+05
    2.5797514245e-03    1.0120000000e+05
    2.5896618608e-03    1.0120000000e+05
    2.5995774195e-03    1.0120000000e+05
    2.6099313982e-03    1.0120000000e+05
    2.6197955012e-03    1.0120000000e+05
    2.6296523865e-03    1.0120000000e+05
    2.6399111375e-03    1.0120000000e+05
    2.6496904902e-03    1.0120000000e+05
    2.6598602999e-03    1.0120000000e+05
    2.6699744631e-03    1.0120000000e+05
    2.6795817539e-03    1.0120000000e+05
    2.6899888180e-03    1.0120000000e+05
    2.6998913381e-03    1.0120000000e+05
    2.7097249404e-03    1.0120000000e+05
    2.7199140750e-03    1.0120000000e+05
    2.7296077460e-03    1.0120000000e+05
    2.7396541554e-03    1.0120000000e+05
    2.7496316470e-03    1.0120000000e+05
    2.7599504683e-03    1.0120000000e+05
    2.7697866317e-03    1.0120000000e+05
    2.7799601667e-03    1.0120000000e+05
    2.7896584943e-03    1.0120000000e+05
    2.7996883728e-03    1.0120000000e+05
    2.8096486349e-03    1.0120000000e+05
    2.8199334629e-03    1.0120000000e+05
    2.8297523968e-03    1.0120000000e+05
    2.8398917057e-03    1.0120000000e+05
    2.8499579057e-03    1.0120000000e+05
    2.8599516954e-03    1.0120000000e+05
    2.8698742390e-03    1.0120000000e+05
    2.8797257692e-03    1.0120000000e+05
    2.8898820747e-03    1.0120000000e+05
    2.8999634087e-03    1.0120000000e+05
    2.9099709354e-03    1.0120000000e+05
    2.9199055862e-03    1.0120000000e+05
    2.9297673609e-03    1.0120000000e+05
    2.9399187770e-03    1.0120000000e+05
    2.9499935918e-03    1.0120000000e+05
    2.9599927366e-03    1.0120000000e+05
    2.9699162114e-03    1.0120000000e+05
    2.9797649477e-03    1.0120000000e+05
    2.9898884241e-03    1.0120000000e+05
    2.9999322724e-03    1.0120000000e+05
    3.0098988209e-03    1.0120000000e+05
    3.0197876040e-03    1.0120000000e+05
    3.0299366917e-03    1.0120000000e+05
    3.0396694783e-03    1.0120000000e+05
    3.0499894638e-03    1.0120000000e+05
    3.0598947778e-03    1.0120000000e+05
    3.0697195325e-03    1.0120000000e+05
    3.0797882937e-03    1.0120000000e+05
    3.0897727702e-03    1.0120000000e+05
    3.0999907758e-03    1.0120000000e+05
    3.1098041218e-03    1.0120000000e+05
    3.1198461074e-03    1.0120000000e+05
    3.1297998503e-03    1.0120000000e+05
    3.1399722211e-03    1.0120000000e+05
    3.1497473828e-03    1.0120000000e+05
    3.1597358175e-03    1.0120000000e+05
    3.1699300744e-03    1.0120000000e+05
    3.1797299162e-03    1.0120000000e+05
    3.1897299923e-03    1.0120000000e+05
    3.1999216881e-03    1.0120000000e+05
    3.2097226940e-03    1.0120000000e+05
    3.2199933194e-03    1.0120000000e+05
    3.2298734877e-03    1.0120000000e+05
    3.2399273477e-03    1.0120000000e+05
    3.2498710789e-03    1.0120000000e+05
    3.2599759288e-03    1.0120000000e+05
    3.2699641306e-03    1.0120000000e+05
    3.2798354514e-03    1.0120000000e+05
    3.2898511272e-03    1.0120000000e+05
    3.2997420058e-03    1.0120000000e+05
    3.3097632695e-03    1.0120000000e+05
    3.3199032769e-03    1.0120000000e+05
    3.3299026545e-03    1.0120000000e+05
    3.3397602383e-03    1.0120000000e+05
    3.3499568235e-03    1.0120000000e+05
    3.3599936869e-03    1.0120000000e+05
    3.3698691987e-03    1.0120000000e+05
    3.3798103686e-03    1.0120000000e+05
    3.3898027614e-03    1.0120000000e+05
    3.3998303115e-03    1.0120000000e+05
    3.4098769538e-03    1.0120000000e+05
    3.4199245274e-03    1.0120000000e+05
    3.4299532417e-03    1.0120000000e+05
    3.4399419092e-03    1.0120000000e+05
    3.4498670138e-03    1.0120000000e+05
    3.4598924685e-03    1.0120000000e+05
    3.4699700773e-03    1.0120000000e+05
    3.4798684064e-03    1.0120000000e+05
    3.4898836166e-03    1.0120000000e+05
    3.4999155905e-03    1.0120000000e+05
    3.5099911038e-03    1.0120000000e+05
    3.5199134145e-03    1.0120000000e+05
    3.5298962612e-03    1.0120000000e+05
    3.5399096087e-03    1.0120000000e+05
    3.5499983933e-03    1.0120000000e+05
    3.5598655231e-03    1.0120000000e+05
    3.5698711872e-03    1.0120000000e+05
    3.5799273755e-03    1.0120000000e+05
    3.5899807699e-03    1.0120000000e+05
    3.5998583771e-03    1.0120000000e+05
    3.6099394783e-03    1.0120000000e+05
    3.6198317539e-03    1.0120000000e+05
    3.6299990024e-03    1.0120000000e+05
    3.6398356315e-03    1.0120000000e+05
    3.6499940325e-03    1.0120000000e+05
    3.6599102896e-03    1.0120000000e+05
    3.6699040793e-03    1.0120000000e+05
    3.6798827350e-03    1.0120000000e+05
    3.6899386905e-03    1.0120000000e+05
    3.6999315489e-03    1.0120000000e+05
    3.7100000773e-03    1.0120000000e+05
    3.7199931685e-03    1.0120000000e+05
    3.7298456300e-03    1.0120000000e+05
    3.7399907596e-03    1.0120000000e+05
    3.7499987520e-03    1.0120000000e+05
    3.7599033676e-03    1.0120000000e+05
    3.7698578089e-03    1.0120000000e+05
    3.7798869889e-03    1.0120000000e+05
    3.7899697199e-03    1.0120000000e+05
    3.7999164779e-03    1.0120000000e+05
    3.8099214435e-03    1.0120000000e+05
    3.8199659903e-03    1.0120000000e+05
    3.8298745640e-03    1.0120000000e+05
    3.8398117758e-03    1.0120000000e+05
    3.8498234935e-03    1.0120000000e+05
    3.8598568644e-03    1.0120000000e+05
    3.8699668366e-03    1.0120000000e+05
    3.8798972964e-03    1.0120000000e+05
    3.8898654748e-03    1.0120000000e+05
    3.8998851087e-03    1.0120000000e+05
    3.9099268615e-03    1.0120000000e+05
    3.9198310114e-03    1.0120000000e+05
    3.9299521595e-03    1.0120000000e+05
    3.9399228990e-03    1.0120000000e+05
    3.9499080740e-03    1.0120000000e+05
    3.9599533193e-03    1.0120000000e+05
    3.9698146284e-03    1.0120000000e+05
    3.9798957296e-03    1.0120000000e+05
    3.9898506366e-03    1.0120000000e+05
    3.9997813292e-03    1.0120000000e+05
    4.0097795427e-03    1.0120000000e+05
    4.0198178031e-03    1.0120000000e+05
    4.0298402309e-03    1.0120000000e+05
    4.0399641730e-03    1.0120000000e+05
    4.0498287417e-03    1.0120000000e+05
    4.0599992499e-03    1.0120000000e+05
    4.0699564852e-03    1.0120000000e+05
    4.0799053386e-03    1.0120000000e+05
    4.0899622254e-03    1.0120000000e+05
    4.0999650955e-03    1.0120000000e+05
    4.1098208167e-03    1.0120000000e+05
    4.1199298576e-03    1.0120000000e+05
    4.1297958232e-03    1.0120000000e+05
    4.1399765760e-03    1.0120000000e+05
    4.1499100626e-03    1.0120000000e+05
    4.1598943062e-03    1.0120000000e+05
    4.1699162684e-03    1.0120000000e+05
    4.1799452156e-03    1.0120000000e+05
    4.1897851042e-03    1.0120000000e+05
    4.1998778470e-03    1.0120000000e+05
    4.2099938728e-03    1.0120000000e+05
    4.2199078016e-03    1.0120000000e+05
    4.2298333719e-03    1.0120000000e+05
    4.2397906072e-03    1.0120000000e+05
    4.2497697286e-03    1.0120000000e+05
    4.2597651482e-03    1.0120000000e+05
    4.2697889730e-03    1.0120000000e+05
    4.2798309587e-03    1.0120000000e+05
    4.2898873799e-03    1.0120000000e+05
    4.2999652214e-03    1.0120000000e+05
    4.3098204769e-03    1.0120000000e+05
    4.3199304491e-03    1.0120000000e+05
    4.3298141100e-03    1.0120000000e+05
    4.3399548158e-03    1.0120000000e+05
    4.3498678133e-03    1.0120000000e+05
    4.3597882614e-03    1.0120000000e+05
    4.3699638918e-03    1.0120000000e+05
    4.3799076229e-03    1.0120000000e+05
    4.3898597360e-03    1.0120000000e+05
    4.3998174369e-03    1.0120000000e+05
    4.4097821228e-03    1.0120000000e+05
    4.4199940749e-03    1.0120000000e+05
    4.4299657457e-03    1.0120000000e+05
    4.4399378821e-03    1.0120000000e+05
    4.4499104843e-03    1.0120000000e+05
    4.4598835520e-03    1.0120000000e+05
    4.4698570855e-03    1.0120000000e+05
    4.4798301533e-03    1.0120000000e+05
    4.4898032211e-03    1.0120000000e+05
    4.4997758232e-03    1.0120000000e+05
    4.5099915005e-03    1.0120000000e+05
    4.5199641027e-03    1.0120000000e+05
    4.5299357735e-03    1.0120000000e+05
    4.5399069786e-03    1.0120000000e+05
    4.5498777181e-03    1.0120000000e+05
    4.5598479919e-03    1.0120000000e+05
    4.5698173344e-03    1.0120000000e+05
    4.5797857456e-03    1.0120000000e+05
    4.5899963006e-03    1.0120000000e+05
    4.5999623835e-03    1.0120000000e+05
    4.6099275351e-03    1.0120000000e+05
    4.6198912896e-03    1.0120000000e+05
    4.6298531815e-03    1.0120000000e+05
    4.6398155391e-03    1.0120000000e+05
    4.6497788280e-03    1.0120000000e+05
    4.6599875204e-03    1.0120000000e+05
    4.6699563973e-03    1.0120000000e+05
    4.6799341217e-03    1.0120000000e+05
    4.6899183653e-03    1.0120000000e+05
    4.6999067999e-03    1.0120000000e+05
    4.7099050134e-03    1.0120000000e+05
    4.7199130058e-03    1.0120000000e+05
    4.7299265862e-03    1.0120000000e+05
    4.7399476171e-03    1.0120000000e+05
    4.7499812208e-03    1.0120000000e+05
    4.7597764060e-03    1.0120000000e+05
    4.7698221169e-03    1.0120000000e+05
    4.7798785381e-03    1.0120000000e+05
    4.7899479978e-03    1.0120000000e+05
    4.7997729853e-03    1.0120000000e+05
    4.8098517582e-03    1.0120000000e+05
    4.8199431039e-03    1.0120000000e+05
    4.8297946341e-03    1.0120000000e+05
    4.8398943618e-03    1.0120000000e+05
    4.8497607931e-03    1.0120000000e+05
    4.8598838039e-03    1.0120000000e+05
    4.8697632737e-03    1.0120000000e+05
    4.8798946664e-03    1.0120000000e+05
    4.8897936940e-03    1.0120000000e+05
    4.8999460414e-03    1.0120000000e+05
    4.9098501913e-03    1.0120000000e+05
    4.9197655171e-03    1.0120000000e+05
    4.9299425445e-03    1.0120000000e+05
    4.9398704432e-03    1.0120000000e+05
    4.9498016015e-03    1.0120000000e+05
    4.9599995837e-03    1.0120000000e+05
    4.9699512310e-03    1.0120000000e+05
    4.9799052067e-03    1.0120000000e+05
    4.9898661673e-03    1.0120000000e+05
    4.9998443574e-03    1.0120000000e+05
    5.0098132342e-03    1.0120000000e+05
    5.0197900273e-03    1.0120000000e+05
    5.0297789276e-03    1.0120000000e+05
    5.0397817977e-03    1.0120000000e+05
    5.0497693010e-03    1.0120000000e+05
    5.0597754307e-03    1.0120000000e+05
    5.0697941333e-03    1.0120000000e+05
    5.0798216835e-03    1.0120000000e+05
    5.0898254849e-03    1.0120000000e+05
    5.0998618826e-03    1.0120000000e+05
    5.1099034026e-03    1.0120000000e+05
    5.1199486479e-03    1.0120000000e+05
    5.1299752668e-03    1.0120000000e+05
    5.1397820935e-03    1.0120000000e+05
    5.1498394459e-03    1.0120000000e+05
    5.1599084400e-03    1.0120000000e+05
    5.1699643955e-03    1.0120000000e+05
    5.1797903143e-03    1.0120000000e+05
    5.1898630336e-03    1.0120000000e+05
    5.1999571733e-03    1.0120000000e+05
    5.2097924054e-03    1.0120000000e+05
    5.2198874764e-03    1.0120000000e+05
    5.2299844101e-03    1.0120000000e+05
    5.2398494445e-03    1.0120000000e+05
    5.2499645390e-03    1.0120000000e+05
    5.2598291077e-03    1.0120000000e+05
    5.2699428052e-03    1.0120000000e+05
    5.2798269317e-03    1.0120000000e+05
    5.2899653092e-03    1.0120000000e+05
    5.2998512983e-03    1.0120000000e+05
    5.3099854849e-03    1.0120000000e+05
    5.3198863752e-03    1.0120000000e+05
    5.3297937848e-03    1.0120000000e+05
    5.3399545141e-03    1.0120000000e+05
    5.3498586640e-03    1.0120000000e+05
    5.3597693332e-03    1.0120000000e+05
    5.3699482232e-03    1.0120000000e+05
    5.3798793815e-03    1.0120000000e+05
    5.3898044862e-03    1.0120000000e+05
    5.3999871016e-03    1.0120000000e+05
    5.4099229164e-03    1.0120000000e+05
    5.4198722355e-03    1.0120000000e+05
    5.4298224859e-03    1.0120000000e+05
    5.4397722706e-03    1.0120000000e+05
    5.4499753751e-03    1.0120000000e+05
    5.4599330761e-03    1.0120000000e+05
    5.4699028842e-03    1.0120000000e+05
    5.4798815399e-03    1.0120000000e+05
    5.4898648523e-03    1.0120000000e+05
    5.4998472333e-03    1.0120000000e+05
    5.5098240264e-03    1.0120000000e+05
    5.5197989568e-03    1.0120000000e+05
    5.5297808722e-03    1.0120000000e+05
    5.5397730321e-03    1.0120000000e+05
    5.5497675203e-03    1.0120000000e+05
    5.5597587489e-03    1.0120000000e+05
    5.5697481148e-03    1.0120000000e+05
    5.5799921975e-03    1.0120000000e+05
    5.5899773724e-03    1.0120000000e+05
    5.5999644101e-03    1.0120000000e+05
    5.6099584326e-03    1.0120000000e+05
    5.6199603714e-03    1.0120000000e+05
    5.6299618445e-03    1.0120000000e+05
    5.6399609894e-03    1.0120000000e+05
    5.6499592029e-03    1.0120000000e+05
    5.6599560194e-03    1.0120000000e+05
    5.6699533015e-03    1.0120000000e+05
    5.6799496524e-03    1.0120000000e+05
    5.6899464689e-03    1.0120000000e+05
    5.6999442168e-03    1.0120000000e+05
    5.7099410333e-03    1.0120000000e+05
    5.7199378498e-03    1.0120000000e+05
    5.7299342006e-03    1.0120000000e+05
    5.7399310172e-03    1.0120000000e+05
    5.7499278337e-03    1.0120000000e+05
    5.7599241845e-03    1.0120000000e+05
    5.7699205354e-03    1.0120000000e+05
    5.7799164206e-03    1.0120000000e+05
    5.7899123058e-03    1.0120000000e+05
    5.7999077253e-03    1.0120000000e+05
    5.8099026792e-03    1.0120000000e+05
    5.8198971674e-03    1.0120000000e+05
    5.8298916556e-03    1.0120000000e+05
    5.8398852125e-03    1.0120000000e+05
    5.8498783037e-03    1.0120000000e+05
    5.8598709293e-03    1.0120000000e+05
    5.8698630892e-03    1.0120000000e+05
    5.8798552491e-03    1.0120000000e+05
    5.8898464777e-03    1.0120000000e+05
    5.8998386376e-03    1.0120000000e+05
    5.9098312631e-03    1.0120000000e+05
    5.9198238887e-03    1.0120000000e+05
    5.9298183769e-03    1.0120000000e+05
    5.9398142621e-03    1.0120000000e+05
    5.9498162009e-03    1.0120000000e+05
    5.9598227963e-03    1.0120000000e+05
    5.9698307887e-03    1.0120000000e+05
    5.9798378497e-03    1.0120000000e+05
    5.9898435138e-03    1.0120000000e+05
    5.9998482466e-03    1.0120000000e+05
    6.0098520480e-03    1.0120000000e+05
    6.0198549181e-03    1.0120000000e+05
    6.0298587196e-03    1.0120000000e+05
    6.0398676433e-03    1.0120000000e+05
    6.0498793609e-03    1.0120000000e+05
    6.0598896816e-03    1.0120000000e+05
    6.0698986053e-03    1.0120000000e+05
    6.0799075291e-03    1.0120000000e+05
    6.0899155214e-03    1.0120000000e+05
    6.0999239795e-03    1.0120000000e+05
    6.1099347658e-03    1.0120000000e+05
    6.1199478805e-03    1.0120000000e+05
    6.1299600638e-03    1.0120000000e+05
    6.1399708502e-03    1.0120000000e+05
    6.1499811709e-03    1.0120000000e+05
    6.1599905603e-03    1.0120000000e+05
    6.1697480269e-03    1.0120000000e+05
    6.1797644012e-03    1.0120000000e+05
    6.1897793785e-03    1.0120000000e+05
    6.1997938901e-03    1.0120000000e+05
    6.2098065391e-03    1.0120000000e+05
    6.2198219821e-03    1.0120000000e+05
    6.2298416160e-03    1.0120000000e+05
    6.2398598529e-03    1.0120000000e+05
    6.2498771586e-03    1.0120000000e+05
    6.2598935328e-03    1.0120000000e+05
    6.2699117698e-03    1.0120000000e+05
    6.2799337320e-03    1.0120000000e+05
    6.2899547629e-03    1.0120000000e+05
    6.2999748625e-03    1.0120000000e+05
    6.3099940307e-03    1.0120000000e+05
    6.3197594136e-03    1.0120000000e+05
    6.3297827728e-03    1.0120000000e+05
    6.3398047350e-03    1.0120000000e+05
    6.3498266973e-03    1.0120000000e+05
    6.3598491251e-03    1.0120000000e+05
    6.3698734157e-03    1.0120000000e+05
    6.3798967749e-03    1.0120000000e+05
    6.3899201341e-03    1.0120000000e+05
    6.3999430276e-03    1.0120000000e+05
    6.4099677838e-03    1.0120000000e+05
    6.4199916087e-03    1.0120000000e+05
    6.4297583885e-03    1.0120000000e+05
    6.4397822134e-03    1.0120000000e+05
    6.4498069696e-03    1.0120000000e+05
    6.4598312601e-03    1.0120000000e+05
    6.4698550850e-03    1.0120000000e+05
    6.4798793755e-03    1.0120000000e+05
    6.4899036661e-03    1.0120000000e+05
    6.4999274909e-03    1.0120000000e+05
    6.5099508502e-03    1.0120000000e+05
    6.5199751407e-03    1.0120000000e+05
    6.5299984999e-03    1.0120000000e+05
    6.5397648141e-03    1.0120000000e+05
    6.5497881733e-03    1.0120000000e+05
    6.5598110668e-03    1.0120000000e+05
    6.5698339604e-03    1.0120000000e+05
    6.5798563883e-03    1.0120000000e+05
    6.5898788162e-03    1.0120000000e+05
    6.5999012440e-03    1.0120000000e+05
    6.6099227406e-03    1.0120000000e+05
    6.6199447028e-03    1.0120000000e+05
    6.6299666651e-03    1.0120000000e+05
    6.6399900243e-03    1.0120000000e+05
    6.6497558728e-03    1.0120000000e+05
    6.6597778350e-03    1.0120000000e+05
    6.6697988659e-03    1.0120000000e+05
    6.6798198968e-03    1.0120000000e+05
    6.6898404621e-03    1.0120000000e+05
    6.6998610273e-03    1.0120000000e+05
    6.7098829895e-03    1.0120000000e+05
    6.7199063487e-03    1.0120000000e+05
    6.7299292423e-03    1.0120000000e+05
    6.7399516702e-03    1.0120000000e+05
    6.7499736324e-03    1.0120000000e+05
    6.7599955946e-03    1.0120000000e+05
    6.7697605118e-03    1.0120000000e+05
    6.7797820084e-03    1.0120000000e+05
    6.7898035049e-03    1.0120000000e+05
    6.7998245358e-03    1.0120000000e+05
    6.8098460324e-03    1.0120000000e+05
    6.8198665977e-03    1.0120000000e+05
    6.8298871629e-03    1.0120000000e+05
    6.8399077281e-03    1.0120000000e+05
    6.8499273621e-03    1.0120000000e+05
    6.8599465303e-03    1.0120000000e+05
    6.8699652329e-03    1.0120000000e+05
    6.8799848668e-03    1.0120000000e+05
    6.8897488527e-03    1.0120000000e+05
    6.8997708149e-03    1.0120000000e+05
    6.9097937085e-03    1.0120000000e+05
    6.9198166020e-03    1.0120000000e+05
    6.9298390299e-03    1.0120000000e+05
    6.9398605265e-03    1.0120000000e+05
    6.9498815574e-03    1.0120000000e+05
    6.9599021226e-03    1.0120000000e+05
    6.9699231535e-03    1.0120000000e+05
    6.9799446501e-03    1.0120000000e+05
    6.9899666123e-03    1.0120000000e+05
    6.9999885745e-03    1.0120000000e+05
    7.0097525604e-03    1.0120000000e+05
    7.0197731256e-03    1.0120000000e+05
    7.0297936909e-03    1.0120000000e+05
    7.0398142561e-03    1.0120000000e+05
    7.0498343557e-03    1.0120000000e+05
    7.0598544553e-03    1.0120000000e+05
    7.0698745549e-03    1.0120000000e+05
    7.0798937231e-03    1.0120000000e+05
    7.0899128914e-03    1.0120000000e+05
    7.0999320596e-03    1.0120000000e+05
    7.1099512279e-03    1.0120000000e+05
    7.1199708618e-03    1.0120000000e+05
    7.1299914271e-03    1.0120000000e+05
    7.1397568099e-03    1.0120000000e+05
    7.1497806348e-03    1.0120000000e+05
    7.1598053910e-03    1.0120000000e+05
    7.1698320098e-03    1.0120000000e+05
    7.1798684075e-03    1.0120000000e+05
    7.1899094619e-03    1.0120000000e+05
    7.1999519132e-03    1.0120000000e+05
    7.2097419761e-03    1.0120000000e+05
    7.2198030539e-03    1.0120000000e+05
    7.2298734449e-03    1.0120000000e+05
    7.2399489582e-03    1.0120000000e+05
    7.2497697547e-03    1.0120000000e+05
    7.2598611005e-03    1.0120000000e+05
    7.2699664161e-03    1.0120000000e+05
    7.2798212059e-03    1.0120000000e+05
    7.2899414226e-03    1.0120000000e+05
    7.2998059914e-03    1.0120000000e+05
    7.3099411093e-03    1.0120000000e+05
    7.3198257014e-03    1.0120000000e+05
    7.3299822398e-03    1.0120000000e+05
    7.3398817331e-03    1.0120000000e+05
    7.3497854173e-03    1.0120000000e+05
    7.3599605821e-03    1.0120000000e+05
    7.3698880151e-03    1.0120000000e+05
    7.3798215017e-03    1.0120000000e+05
    7.3897582479e-03    1.0120000000e+05
    7.3999585584e-03    1.0120000000e+05
    7.4099120684e-03    1.0120000000e+05
    7.4198767543e-03    1.0120000000e+05
    7.4298465624e-03    1.0120000000e+05
    7.4398173019e-03    1.0120000000e+05
    7.4497936293e-03    1.0120000000e+05
    7.4597820640e-03    1.0120000000e+05
    7.4697840028e-03    1.0120000000e+05
    7.4797836132e-03    1.0120000000e+05
    7.4897902086e-03    1.0120000000e+05
    7.4997982010e-03    1.0120000000e+05
    7.5098224916e-03    1.0120000000e+05
    7.5198560953e-03    1.0120000000e+05
    7.5298864394e-03    1.0120000000e+05
    7.5399219058e-03    1.0120000000e+05
    7.5499685481e-03    1.0120000000e+05
    7.5597586110e-03    1.0120000000e+05
    7.5698248111e-03    1.0120000000e+05
    7.5798844919e-03    1.0120000000e+05
    7.5899548829e-03    1.0120000000e+05
    7.5997677632e-03    1.0120000000e+05
    7.6098549180e-03    1.0120000000e+05
    7.6199481264e-03    1.0120000000e+05
    7.6297693886e-03    1.0120000000e+05
    7.6398644596e-03    1.0120000000e+05
    7.6499739662e-03    1.0120000000e+05
    7.6598213054e-03    1.0120000000e+05
    7.6699382626e-03    1.0120000000e+05
    7.6797795482e-03    1.0120000000e+05
    7.6898965053e-03    1.0120000000e+05
    7.6997675933e-03    1.0120000000e+05
    7.7099096961e-03    1.0120000000e+05
    7.7197859064e-03    1.0120000000e+05
    7.7299214900e-03    1.0120000000e+05
    7.7397939749e-03    1.0120000000e+05
    7.7499556355e-03    1.0120000000e+05
    7.7598532662e-03    1.0120000000e+05
    7.7697560191e-03    1.0120000000e+05
    7.7799162827e-03    1.0120000000e+05
    7.7898157761e-03    1.0120000000e+05
    7.7999974601e-03    1.0120000000e+05
    7.8099174425e-03    1.0120000000e+05
    7.8198434785e-03    1.0120000000e+05
    7.8297723085e-03    1.0120000000e+05
    7.8399628401e-03    1.0120000000e+05
    7.8498953953e-03    1.0120000000e+05
    7.8598372638e-03    1.0120000000e+05
    7.8697856516e-03    1.0120000000e+05
    7.8797452152e-03    1.0120000000e+05
    7.8899702057e-03    1.0120000000e+05
    7.8999288380e-03    1.0120000000e+05
    7.9098884016e-03    1.0120000000e+05
    7.9198572785e-03    1.0120000000e+05
    7.9298382625e-03    1.0120000000e+05
    7.9398248345e-03    1.0120000000e+05
    7.9498030245e-03    1.0120000000e+05
    7.9597821459e-03    1.0120000000e+05
    7.9697649926e-03    1.0120000000e+05
    7.9797646031e-03    1.0120000000e+05
    7.9897744581e-03    1.0120000000e+05
    7.9997843131e-03    1.0120000000e+05
    8.0097904429e-03    1.0120000000e+05
    8.0197937787e-03    1.0120000000e+05
    8.0298045650e-03    1.0120000000e+05
    8.0398321152e-03    1.0120000000e+05
    8.0498605967e-03    1.0120000000e+05
    8.0598881468e-03    1.0120000000e+05
    8.0699175596e-03    1.0120000000e+05
    8.0799469724e-03    1.0120000000e+05
    8.0899847671e-03    1.0120000000e+05
    8.0997608602e-03    1.0120000000e+05
    8.1098135561e-03    1.0120000000e+05
    8.1198671833e-03    1.0120000000e+05
    8.1299180165e-03    1.0120000000e+05
    8.1399790943e-03    1.0120000000e+05
    8.1497756764e-03    1.0120000000e+05
    8.1598488614e-03    1.0120000000e+05
    8.1699267030e-03    1.0120000000e+05
    8.1797325984e-03    1.0120000000e+05
    8.1898113713e-03    1.0120000000e+05
    8.1998929381e-03    1.0120000000e+05
    8.2099828869e-03    1.0120000000e+05
    8.2198083401e-03    1.0120000000e+05
    8.2299066707e-03    1.0120000000e+05
    8.2397311926e-03    1.0120000000e+05
    8.2498369738e-03    1.0120000000e+05
    8.2599474117e-03    1.0120000000e+05
    8.2697896287e-03    1.0120000000e+05
    8.2799065858e-03    1.0120000000e+05
    8.2897553220e-03    1.0120000000e+05
    8.2998787984e-03    1.0120000000e+05
    8.3097275347e-03    1.0120000000e+05
    8.3198603243e-03    1.0120000000e+05
    8.3297276869e-03    1.0120000000e+05
    8.3398679271e-03    1.0120000000e+05
    8.3497362211e-03    1.0120000000e+05
    8.3598820493e-03    1.0120000000e+05
    8.3697577938e-03    1.0120000000e+05
    8.3799110726e-03    1.0120000000e+05
    8.3897970617e-03    1.0120000000e+05
    8.3999643102e-03    1.0120000000e+05
    8.4098549560e-03    1.0120000000e+05
    8.4197446704e-03    1.0120000000e+05
    8.4299193695e-03    1.0120000000e+05
    8.4398249164e-03    1.0120000000e+05
    8.4497341886e-03    1.0120000000e+05
    8.4599209949e-03    1.0120000000e+05
    8.4698358551e-03    1.0120000000e+05
    8.4797516465e-03    1.0120000000e+05
    8.4899412468e-03    1.0120000000e+05
    8.4998654202e-03    1.0120000000e+05
    8.5097989067e-03    1.0120000000e+05
    8.5197314620e-03    1.0120000000e+05
    8.5299406201e-03    1.0120000000e+05
    8.5398815572e-03    1.0120000000e+05
    8.5498262197e-03    1.0120000000e+05
    8.5597708821e-03    1.0120000000e+05
    8.5699940100e-03    1.0120000000e+05
    8.5799526423e-03    1.0120000000e+05
    8.5899122059e-03    1.0120000000e+05
    8.5998708382e-03    1.0120000000e+05
    8.6098359898e-03    1.0120000000e+05
    8.6198085919e-03    1.0120000000e+05
    8.6297793314e-03    1.0120000000e+05
    8.6397547275e-03    1.0120000000e+05
    8.6497347802e-03    1.0120000000e+05
    8.6599998176e-03    1.0120000000e+05
    8.6699845269e-03    1.0120000000e+05
    8.6799738929e-03    1.0120000000e+05
    8.6899735034e-03    1.0120000000e+05
    8.6999712512e-03    1.0120000000e+05
    8.7099689990e-03    1.0120000000e+05
    8.7199779227e-03    1.0120000000e+05
    8.7299933657e-03    1.0120000000e+05
    8.7397294119e-03    1.0120000000e+05
    8.7497411296e-03    1.0120000000e+05
    8.7597649544e-03    1.0120000000e+05
    8.7697925046e-03    1.0120000000e+05
    8.7798144668e-03    1.0120000000e+05
    8.7898485363e-03    1.0120000000e+05
    8.7998919189e-03    1.0120000000e+05
    8.8099353015e-03    1.0120000000e+05
    8.8199758902e-03    1.0120000000e+05
    8.8297445327e-03    1.0120000000e+05
    8.8398018852e-03    1.0120000000e+05
    8.8498555124e-03    1.0120000000e+05
    8.8599072769e-03    1.0120000000e+05
    8.8699776679e-03    1.0120000000e+05
    8.8797714561e-03    1.0120000000e+05
    8.8898427784e-03    1.0120000000e+05
    8.8999196887e-03    1.0120000000e+05
    8.9097274467e-03    1.0120000000e+05
    8.9198173955e-03    1.0120000000e+05
    8.9298998937e-03    1.0120000000e+05
    8.9399889112e-03    1.0120000000e+05
    8.9498115703e-03    1.0120000000e+05
    8.9599080384e-03    1.0120000000e+05
    8.9697316289e-03    1.0120000000e+05
    8.9798495173e-03    1.0120000000e+05
    8.9899711311e-03    1.0120000000e+05
    8.9998068288e-03    1.0120000000e+05
    9.0099265799e-03    1.0120000000e+05
    9.0197781101e-03    1.0120000000e+05
    9.0299146250e-03    1.0120000000e+05
    9.0397587046e-03    1.0120000000e+05
    9.0498942882e-03    1.0120000000e+05
    9.0597635135e-03    1.0120000000e+05
    9.0699056163e-03    1.0120000000e+05
    9.0797729790e-03    1.0120000000e+05
    9.0899365023e-03    1.0120000000e+05
    9.0998299420e-03    1.0120000000e+05
    9.1097261757e-03    1.0120000000e+05
    9.1199083254e-03    1.0120000000e+05
    9.1298101470e-03    1.0120000000e+05
    9.1399941593e-03    1.0120000000e+05
    9.1498922557e-03    1.0120000000e+05
    9.1597894207e-03    1.0120000000e+05
    9.1699687764e-03    1.0120000000e+05
    9.1798668727e-03    1.0120000000e+05
    9.1897668317e-03    1.0120000000e+05
    9.1999508440e-03    1.0120000000e+05
    9.2098517343e-03    1.0120000000e+05
    9.2197498307e-03    1.0120000000e+05
    9.2299291864e-03    1.0120000000e+05
    9.2398338020e-03    1.0120000000e+05
    9.2497402802e-03    1.0120000000e+05
    9.2599336058e-03    1.0120000000e+05
    9.2698382214e-03    1.0120000000e+05
    9.2797484249e-03    1.0120000000e+05
    9.2899538577e-03    1.0120000000e+05
    9.2998808250e-03    1.0120000000e+05
    9.3098143116e-03    1.0120000000e+05
    9.3197468668e-03    1.0120000000e+05
    9.3299625441e-03    1.0120000000e+05
    9.3398923054e-03    1.0120000000e+05
    9.3498192728e-03    1.0120000000e+05
    9.3597453088e-03    1.0120000000e+05
    9.3699600548e-03    1.0120000000e+05
    9.3798926100e-03    1.0120000000e+05
    9.3898288906e-03    1.0120000000e+05
    9.3997661024e-03    1.0120000000e+05
    9.4099873677e-03    1.0120000000e+05
    9.4199236482e-03    1.0120000000e+05
    9.4298580661e-03    1.0120000000e+05
    9.4397924840e-03    1.0120000000e+05
    9.4497250393e-03    1.0120000000e+05
    9.4599407166e-03    1.0120000000e+05
    9.4698742032e-03    1.0120000000e+05
    9.4798086211e-03    1.0120000000e+05
    9.4897439703e-03    1.0120000000e+05
    9.4999615103e-03    1.0120000000e+05
    9.5098940656e-03    1.0120000000e+05
    9.5198256895e-03    1.0120000000e+05
    9.5297563821e-03    1.0120000000e+05
    9.5399711281e-03    1.0120000000e+05
    9.5499027520e-03    1.0120000000e+05
    9.5598343760e-03    1.0120000000e+05
    9.5697659999e-03    1.0120000000e+05
    9.5799788833e-03    1.0120000000e+05
    9.5899095759e-03    1.0120000000e+05
    9.5998411998e-03    1.0120000000e+05
    9.6097737551e-03    1.0120000000e+05
    9.6199894324e-03    1.0120000000e+05
    9.6299210563e-03    1.0120000000e+05
    9.6398526803e-03    1.0120000000e+05
    9.6497833729e-03    1.0120000000e+05
    9.6599999815e-03    1.0120000000e+05
    9.6699390560e-03    1.0120000000e+05
    9.6798827872e-03    1.0120000000e+05
    9.6898283809e-03    1.0120000000e+05
    9.6997758374e-03    1.0120000000e+05
    9.7097279504e-03    1.0120000000e+05
    9.7199659795e-03    1.0120000000e+05
    9.7299180925e-03    1.0120000000e+05
    9.7398692742e-03    1.0120000000e+05
    9.7498185933e-03    1.0120000000e+05
    9.7597669810e-03    1.0120000000e+05
    9.7699984908e-03    1.0120000000e+05
    9.7799478099e-03    1.0120000000e+05
    9.7898989916e-03    1.0120000000e+05
    9.7998520359e-03    1.0120000000e+05
    9.8098088056e-03    1.0120000000e+05
    9.8197665066e-03    1.0120000000e+05
    9.8297223449e-03    1.0120000000e+05
    9.8399613053e-03    1.0120000000e+05
    9.8499143496e-03    1.0120000000e+05
    9.8598664626e-03    1.0120000000e+05
    9.8698185757e-03    1.0120000000e+05
    9.8797697574e-03    1.0120000000e+05
    9.8897200078e-03    1.0120000000e+05
    9.8999543115e-03    1.0120000000e+05
    9.9099026993e-03    1.0120000000e+05
    9.9198510870e-03    1.0120000000e+05
    9.9297994748e-03    1.0120000000e+05
    9.9397459999e-03    1.0120000000e+05
    9.9499775097e-03    1.0120000000e+05
    9.9599240348e-03    1.0120000000e+05
    9.9698714912e-03    1.0120000000e+05
    9.9798189476e-03    1.0120000000e+05
    9.9897654727e-03    1.0120000000e+05
    9.9999951199e-03    1.0120000000e+05
    1.0009938851e-02    1.0120000000e+05
    1.0019884445e-02    1.0120000000e+05
    1.0029829107e-02    1.0120000000e+05
    1.0039774701e-02    1.0120000000e+05
    1.0049719363e-02    1.0120000000e+05
    1.0059949011e-02    1.0120000000e+05
    1.0069891810e-02    1.0120000000e+05
    1.0079838336e-02    1.0120000000e+05
    1.0089786723e-02    1.0120000000e+05
    1.0099738836e-02    1.0120000000e+05
    1.0109980591e-02    1.0120000000e+05
    1.0119937360e-02    1.0120000000e+05
    1.0129899718e-02    1.0120000000e+05
    1.0139869526e-02    1.0120000000e+05
    1.0149839334e-02    1.0120000000e+05
    1.0159814730e-02    1.0120000000e+05
    1.0169799440e-02    1.0120000000e+05
    1.0179786012e-02    1.0120000000e+05
    1.0189780034e-02    1.0120000000e+05
    1.0199778713e-02    1.0120000000e+05
    1.0209778324e-02    1.0120000000e+05
    1.0219790041e-02    1.0120000000e+05
    1.0229813866e-02    1.0120000000e+05
    1.0239835829e-02    1.0120000000e+05
    1.0249879211e-02    1.0120000000e+05
    1.0259934701e-02    1.0120000000e+05
    1.0269998573e-02    1.0120000000e+05
    1.0279795155e-02    1.0120000000e+05
    1.0289907455e-02    1.0120000000e+05
    1.0299759917e-02    1.0120000000e+05
    1.0309922509e-02    1.0120000000e+05
    1.0319809429e-02    1.0120000000e+05
    1.0329717770e-02    1.0120000000e+05
    1.0339935310e-02    1.0120000000e+05
    1.0349859484e-02    1.0120000000e+05
    1.0359799489e-02    1.0120000000e+05
    1.0369767435e-02    1.0120000000e+05
    1.0379768908e-02    1.0120000000e+05
    1.0389807634e-02    1.0120000000e+05
    1.0399878025e-02    1.0120000000e+05
    1.0409976356e-02    1.0120000000e+05
    1.0419796221e-02    1.0120000000e+05
    1.0429929942e-02    1.0120000000e+05
    1.0439775884e-02    1.0120000000e+05
    1.0449931026e-02    1.0120000000e+05
    1.0459800251e-02    1.0120000000e+05
    1.0469987988e-02    1.0120000000e+05
    1.0479900055e-02    1.0120000000e+05
    1.0489832610e-02    1.0120000000e+05
    1.0499781929e-02    1.0120000000e+05
    1.0509748012e-02    1.0120000000e+05
    1.0519733652e-02    1.0120000000e+05
    1.0529766791e-02    1.0120000000e+05
    1.0539898649e-02    1.0120000000e+05
    1.0549868457e-02    1.0120000000e+05
    1.0559710674e-02    1.0120000000e+05
    1.0569760576e-02    1.0120000000e+05
    1.0579693131e-02    1.0120000000e+05
    1.0589831509e-02    1.0120000000e+05
    1.0599827394e-02    1.0120000000e+05
    1.0609657504e-02    1.0120000000e+05
    1.0619660839e-02    1.0120000000e+05
    1.0629834607e-02    1.0120000000e+05
    1.0639804415e-02    1.0120000000e+05
    1.0649927892e-02    1.0120000000e+05
    1.0659820400e-02    1.0120000000e+05
    1.0669852607e-02    1.0120000000e+05
    1.0679630563e-02    1.0120000000e+05
    1.0689934716e-02    1.0120000000e+05
    1.0699970648e-02    1.0120000000e+05
    1.0709726252e-02    1.0120000000e+05
    1.0719594546e-02    1.0120000000e+05
    1.0729997419e-02    1.0120000000e+05
    1.0739677586e-02    1.0120000000e+05
    1.0749892332e-02    1.0120000000e+05
    1.0759780183e-02    1.0120000000e+05
    1.0769768618e-02    1.0120000000e+05
    1.0779862292e-02    1.0120000000e+05
    1.0789616965e-02    1.0120000000e+05
    1.0799915530e-02    1.0120000000e+05
    1.0809852742e-02    1.0120000000e+05
    1.0819855146e-02    1.0120000000e+05
    1.0829905048e-02    1.0120000000e+05
    1.0839988478e-02    1.0120000000e+05
    1.0849651881e-02    1.0120000000e+05
    1.0859808885e-02    1.0120000000e+05
    1.0869544931e-02    1.0120000000e+05
    1.0879783891e-02    1.0120000000e+05
    1.0889600962e-02    1.0120000000e+05
    1.0899941437e-02    1.0120000000e+05
    1.0909848846e-02    1.0120000000e+05
    1.0919801891e-02    1.0120000000e+05
    1.0929813609e-02    1.0120000000e+05
    1.0939849541e-02    1.0120000000e+05
    1.0949912481e-02    1.0120000000e+05
    1.0959567502e-02    1.0120000000e+05
    1.0969752446e-02    1.0120000000e+05
    1.0979951359e-02    1.0120000000e+05
    1.0989722796e-02    1.0120000000e+05
    1.0999507271e-02    1.0120000000e+05
    1.1009863578e-02    1.0120000000e+05
    1.1019720696e-02    1.0120000000e+05
    1.1029665358e-02    1.0120000000e+05
    1.1039606296e-02    1.0120000000e+05
    1.1049605906e-02    1.0120000000e+05
    1.1059653945e-02    1.0120000000e+05
    1.1069719680e-02    1.0120000000e+05
    1.1079821736e-02    1.0120000000e+05
    1.1089911684e-02    1.0120000000e+05
    1.1099563912e-02    1.0120000000e+05
    1.1109776795e-02    1.0120000000e+05
    1.1119971983e-02    1.0120000000e+05
    1.1129727587e-02    1.0120000000e+05
    1.1139585637e-02    1.0120000000e+05
    1.1149990372e-02    1.0120000000e+05
    1.1159827933e-02    1.0120000000e+05
    1.1169731617e-02    1.0120000000e+05
    1.1179649271e-02    1.0120000000e+05
    1.1189626530e-02    1.0120000000e+05
    1.1199587956e-02    1.0120000000e+05
    1.1209587567e-02    1.0120000000e+05
    1.1219624430e-02    1.0120000000e+05
    1.1229648255e-02    1.0120000000e+05
    1.1239697225e-02    1.0120000000e+05
    1.1249779724e-02    1.0120000000e+05
    1.1259907857e-02    1.0120000000e+05
    1.1269534938e-02    1.0120000000e+05
    1.1279694736e-02    1.0120000000e+05
    1.1289922521e-02    1.0120000000e+05
    1.1299593374e-02    1.0120000000e+05
    1.1309865862e-02    1.0120000000e+05
    1.1319580488e-02    1.0120000000e+05
    1.1329877190e-02    1.0120000000e+05
    1.1339630932e-02    1.0120000000e+05
    1.1349911802e-02    1.0120000000e+05
    1.1359651573e-02    1.0120000000e+05
    1.1369873770e-02    1.0120000000e+05
    1.1379932985e-02    1.0120000000e+05
    1.1389764957e-02    1.0120000000e+05
    1.1399772950e-02    1.0120000000e+05
    1.1409895495e-02    1.0120000000e+05
    1.1419640854e-02    1.0120000000e+05
    1.1429897510e-02    1.0120000000e+05
    1.1439735070e-02    1.0120000000e+05
    1.1449968442e-02    1.0120000000e+05
    1.1459736153e-02    1.0120000000e+05
    1.1469780467e-02    1.0120000000e+05
    1.1479998007e-02    1.0120000000e+05
    1.1489960365e-02    1.0120000000e+05
    1.1499918066e-02    1.0120000000e+05
    1.1509751901e-02    1.0120000000e+05
    1.1519835331e-02    1.0120000000e+05
    1.1529864743e-02    1.0120000000e+05
    1.1539806612e-02    1.0120000000e+05
    1.1549848132e-02    1.0120000000e+05
    1.1559998617e-02    1.0120000000e+05
    1.1569859460e-02    1.0120000000e+05
    1.1579861864e-02    1.0120000000e+05
    1.1589862406e-02    1.0120000000e+05
    1.1599893682e-02    1.0120000000e+05
    1.1609962210e-02    1.0120000000e+05
    1.1619946919e-02    1.0120000000e+05
    1.1629911140e-02    1.0120000000e+05
    1.1639810167e-02    1.0120000000e+05
    1.1649971828e-02    1.0120000000e+05
    1.1659928598e-02    1.0120000000e+05
    1.1669906788e-02    1.0120000000e+05
    1.1679930612e-02    1.0120000000e+05
    1.1689926498e-02    1.0120000000e+05
    1.1699908413e-02    1.0120000000e+05
    1.1709809303e-02    1.0120000000e+05
    1.1719852686e-02    1.0120000000e+05
    1.1729993857e-02    1.0120000000e+05
    1.1739771813e-02    1.0120000000e+05
    1.1749850586e-02    1.0120000000e+05
    1.1759999208e-02    1.0120000000e+05
    1.1769975536e-02    1.0120000000e+05
    1.1779997498e-02    1.0120000000e+05
    1.1789838783e-02    1.0120000000e+05
    1.1799943633e-02    1.0120000000e+05
    1.1809857562e-02    1.0120000000e+05
    1.1819805019e-02    1.0120000000e+05
    1.1829776689e-02    1.0120000000e+05
    1.1839793995e-02    1.0120000000e+05
    1.1849812232e-02    1.0120000000e+05
    1.1859884486e-02    1.0120000000e+05
    1.1869961396e-02    1.0120000000e+05
    1.1879828759e-02    1.0120000000e+05
    1.1889960617e-02    1.0120000000e+05
    1.1899859644e-02    1.0120000000e+05
    1.1909805238e-02    1.0120000000e+05
    1.1919972487e-02    1.0120000000e+05
    1.1929956265e-02    1.0120000000e+05
    1.1939928867e-02    1.0120000000e+05
    1.1949931271e-02    1.0120000000e+05
    1.1959956028e-02    1.0120000000e+05
    1.1969994754e-02    1.0120000000e+05
    1.1979816481e-02    1.0120000000e+05
    1.1989881285e-02    1.0120000000e+05
    1.1999987066e-02    1.0120000000e+05
    1.2009855360e-02    1.0120000000e+05
    1.2019979768e-02    1.0120000000e+05
    1.2029886246e-02    1.0120000000e+05
    1.2039807625e-02    1.0120000000e+05
    1.2049989775e-02    1.0120000000e+05
    1.2059928849e-02    1.0120000000e+05
    1.2069901451e-02    1.0120000000e+05
    1.2079879642e-02    1.0120000000e+05
    1.2089867145e-02    1.0120000000e+05
    1.2099875137e-02    1.0120000000e+05
    1.2109901756e-02    1.0120000000e+05
    1.2119924650e-02    1.0120000000e+05
    1.2129966170e-02    1.0120000000e+05
    1.2139780447e-02    1.0120000000e+05
    1.2149850838e-02    1.0120000000e+05
    1.2159916572e-02    1.0120000000e+05
    1.2169763446e-02    1.0120000000e+05
    1.2179871090e-02    1.0120000000e+05
    1.2189976871e-02    1.0120000000e+05
    1.2199846096e-02    1.0120000000e+05
    1.2209995650e-02    1.0120000000e+05
    1.2219881639e-02    1.0120000000e+05
    1.2229776941e-02    1.0120000000e+05
    1.2239949778e-02    1.0120000000e+05
    1.2249877676e-02    1.0120000000e+05
    1.2259792536e-02    1.0120000000e+05
    1.2269990519e-02    1.0120000000e+05
    1.2279951014e-02    1.0120000000e+05
    1.2289903127e-02    1.0120000000e+05
    1.2299851514e-02    1.0120000000e+05
    1.2309837155e-02    1.0120000000e+05
    1.2319825590e-02    1.0120000000e+05
    1.2329814024e-02    1.0120000000e+05
    1.2339805253e-02    1.0120000000e+05
    1.2349821627e-02    1.0120000000e+05
    1.2359832413e-02    1.0120000000e+05
    1.2369859032e-02    1.0120000000e+05
    1.2379899621e-02    1.0120000000e+05
    1.2389943935e-02    1.0120000000e+05
    1.2399978004e-02    1.0120000000e+05
    1.2409783900e-02    1.0120000000e+05
    1.2419861741e-02    1.0120000000e+05
    1.2429933064e-02    1.0120000000e+05
    1.2439996004e-02    1.0120000000e+05
    1.2449824251e-02    1.0120000000e+05
    1.2459926307e-02    1.0120000000e+05
    1.2469768524e-02    1.0120000000e+05
    1.2479869649e-02    1.0120000000e+05
    1.2489984743e-02    1.0120000000e+05
    1.2499846518e-02    1.0120000000e+05
    1.2509978376e-02    1.0120000000e+05
    1.2519857846e-02    1.0120000000e+05
    1.2529996224e-02    1.0120000000e+05
    1.2539878488e-02    1.0120000000e+05
    1.2549773790e-02    1.0120000000e+05
    1.2559945695e-02    1.0120000000e+05
    1.2569852173e-02    1.0120000000e+05
    1.2579754926e-02    1.0120000000e+05
    1.2589926831e-02    1.0120000000e+05
    1.2599854730e-02    1.0120000000e+05
    1.2609787285e-02    1.0120000000e+05
    1.2619976886e-02    1.0120000000e+05
    1.2629906647e-02    1.0120000000e+05
    1.2639845721e-02    1.0120000000e+05
    1.2649796903e-02    1.0120000000e+05
    1.2659755535e-02    1.0120000000e+05
    1.2669974007e-02    1.0120000000e+05
    1.2679934502e-02    1.0120000000e+05
    1.2689896859e-02    1.0120000000e+05
    1.2699872255e-02    1.0120000000e+05
    1.2709847651e-02    1.0120000000e+05
    1.2719820254e-02    1.0120000000e+05
    1.2729796581e-02    1.0120000000e+05
    1.2739783153e-02    1.0120000000e+05
    1.2749779038e-02    1.0120000000e+05
    1.2759776786e-02    1.0120000000e+05
    1.2769774534e-02    1.0120000000e+05
    1.2779776007e-02    1.0120000000e+05
    1.2789778411e-02    1.0120000000e+05
    1.2799779885e-02    1.0120000000e+05
    1.2809780426e-02    1.0120000000e+05
    1.2819780968e-02    1.0120000000e+05
    1.2829780579e-02    1.0120000000e+05
    1.2839787640e-02    1.0120000000e+05
    1.2849796563e-02    1.0120000000e+05
    1.2859807350e-02    1.0120000000e+05
    1.2869819067e-02    1.0120000000e+05
    1.2879831716e-02    1.0120000000e+05
    1.2889844365e-02    1.0120000000e+05
    1.2899857014e-02    1.0120000000e+05
    1.2909869663e-02    1.0120000000e+05
    1.2919882312e-02    1.0120000000e+05
    1.2929894961e-02    1.0120000000e+05
    1.2939907610e-02    1.0120000000e+05
    1.2949920259e-02    1.0120000000e+05
    1.2959932908e-02    1.0120000000e+05
    1.2969945557e-02    1.0120000000e+05
    1.2979959138e-02    1.0120000000e+05
    1.2989973649e-02    1.0120000000e+05
    1.2999988161e-02    1.0120000000e+05
    1.3009739108e-02    1.0120000000e+05
    1.3019754551e-02    1.0120000000e+05
    1.3029769994e-02    1.0120000000e+05
    1.3039786369e-02    1.0120000000e+05
    1.3049803674e-02    1.0120000000e+05
    1.3059821911e-02    1.0120000000e+05
    1.3069840148e-02    1.0120000000e+05
    1.3079860248e-02    1.0120000000e+05
    1.3089879416e-02    1.0120000000e+05
    1.3099900447e-02    1.0120000000e+05
    1.3109921478e-02    1.0120000000e+05
    1.3119943440e-02    1.0120000000e+05
    1.3129966334e-02    1.0120000000e+05
    1.3139988296e-02    1.0120000000e+05
    1.3149747625e-02    1.0120000000e+05
    1.3159770519e-02    1.0120000000e+05
    1.3169794343e-02    1.0120000000e+05
    1.3179819100e-02    1.0120000000e+05
    1.3189842924e-02    1.0120000000e+05
    1.3199866749e-02    1.0120000000e+05
    1.3209890574e-02    1.0120000000e+05
    1.3219914399e-02    1.0120000000e+05
    1.3229939155e-02    1.0120000000e+05
    1.3239965774e-02    1.0120000000e+05
    1.3249995187e-02    1.0120000000e+05
    1.3259764761e-02    1.0120000000e+05
    1.3269803487e-02    1.0120000000e+05
    1.3279843144e-02    1.0120000000e+05
    1.3289881870e-02    1.0120000000e+05
    1.3299919665e-02    1.0120000000e+05
    1.3309956528e-02    1.0120000000e+05
    1.3319993392e-02    1.0120000000e+05
    1.3329764828e-02    1.0120000000e+05
    1.3339801691e-02    1.0120000000e+05
    1.3349841349e-02    1.0120000000e+05
    1.3359882869e-02    1.0120000000e+05
    1.3369924389e-02    1.0120000000e+05
    1.3379964978e-02    1.0120000000e+05
    1.3389741071e-02    1.0120000000e+05
    1.3399781659e-02    1.0120000000e+05
    1.3409823179e-02    1.0120000000e+05
    1.3419866562e-02    1.0120000000e+05
    1.3429909945e-02    1.0120000000e+05
    1.3439952396e-02    1.0120000000e+05
    1.3449994847e-02    1.0120000000e+05
    1.3459773734e-02    1.0120000000e+05
    1.3469816186e-02    1.0120000000e+05
    1.3479858637e-02    1.0120000000e+05
    1.3489902020e-02    1.0120000000e+05
    1.3499945402e-02    1.0120000000e+05
    1.3509988785e-02    1.0120000000e+05
    1.3519767672e-02    1.0120000000e+05
    1.3529811054e-02    1.0120000000e+05
    1.3539854437e-02    1.0120000000e+05
    1.3549897820e-02    1.0120000000e+05
    1.3559941202e-02    1.0120000000e+05
    1.3569984585e-02    1.0120000000e+05
    1.3579764403e-02    1.0120000000e+05
    1.3589808717e-02    1.0120000000e+05
    1.3599852100e-02    1.0120000000e+05
    1.3609896414e-02    1.0120000000e+05
    1.3619939797e-02    1.0120000000e+05
    1.3629984111e-02    1.0120000000e+05
    1.3639763929e-02    1.0120014844e+05
    1.3649809174e-02    1.0150282031e+05
    1.3659853488e-02    1.4821342188e+05
    1.3669898733e-02    1.5820092188e+05
    1.3679943047e-02    1.5810745312e+05
    1.3689987361e-02    1.5792223438e+05
    1.3699768111e-02    1.5772676562e+05
    1.3709813356e-02    1.5752796875e+05
    1.3719858602e-02    1.5732818750e+05
    1.3729903847e-02    1.5713104688e+05
    1.3739948161e-02    1.5693487500e+05
    1.3749993406e-02    1.5673659375e+05
    1.3759775087e-02    1.5654523438e+05
    1.3769820333e-02    1.5635023438e+05
    1.3779866509e-02    1.5615585938e+05
    1.3789911754e-02    1.5596048438e+05
    1.3799957000e-02    1.5576607812e+05
    1.3809738681e-02    1.5557907812e+05
    1.3819784857e-02    1.5538698438e+05
    1.3829830103e-02    1.5519359375e+05
    1.3839876279e-02    1.5500215625e+05
    1.3849922456e-02    1.5481217188e+05
    1.3859968632e-02    1.5462150000e+05
    1.3869750313e-02    1.5443675000e+05
    1.3879796490e-02    1.5424776562e+05
    1.3889842667e-02    1.5405914062e+05
    1.3899888843e-02    1.5387120312e+05
    1.3909935020e-02    1.5368379688e+05
    1.3919981197e-02    1.5349700000e+05
    1.3929763809e-02    1.5331564062e+05
    1.3939809985e-02    1.5312998438e+05
    1.3949856162e-02    1.5294493750e+05
    1.3959903270e-02    1.5276035938e+05
    1.3969950378e-02    1.5257603125e+05
    1.3979996555e-02    1.5239262500e+05
    1.3989779167e-02    1.5221526562e+05
    1.3999826275e-02    1.5203268750e+05
    1.4009873383e-02    1.5185003125e+05
    1.4019920491e-02    1.5166928125e+05
    1.4029967599e-02    1.5148925000e+05
    1.4039751142e-02    1.5131335938e+05
    1.4049798250e-02    1.5113335938e+05
    1.4059846289e-02    1.5095468750e+05
    1.4069893397e-02    1.5077640625e+05
    1.4079941437e-02    1.5059818750e+05
    1.4089989476e-02    1.5042048438e+05
    1.4099772088e-02    1.5024834375e+05
    1.4109820127e-02    1.5007229688e+05
    1.4119868167e-02    1.4989626562e+05
    1.4129917137e-02    1.4972059375e+05
    1.4139966108e-02    1.4954596875e+05
    1.4149751514e-02    1.4937639062e+05
    1.4159800485e-02    1.4920264062e+05
    1.4169849455e-02    1.4902942188e+05
    1.4179898426e-02    1.4885631250e+05
    1.4189947397e-02    1.4868407812e+05
    1.4199997298e-02    1.4851296875e+05
    1.4209781773e-02    1.4834618750e+05
    1.4219831675e-02    1.4817481250e+05
    1.4229881577e-02    1.4800476562e+05
    1.4239932410e-02    1.4783575000e+05
    1.4249983244e-02    1.4766643750e+05
    1.4259769581e-02    1.4750164062e+05
    1.4269819483e-02    1.4733337500e+05
    1.4279871248e-02    1.4716604688e+05
    1.4289922081e-02    1.4699895312e+05
    1.4299973845e-02    1.4683201562e+05
    1.4309760183e-02    1.4667012500e+05
    1.4319811948e-02    1.4650451562e+05
    1.4329863712e-02    1.4633925000e+05
    1.4339916408e-02    1.4617437500e+05
    1.4349969104e-02    1.4601000000e+05
    1.4359756373e-02    1.4585057812e+05
    1.4369809069e-02    1.4568750000e+05
    1.4379861765e-02    1.4552460938e+05
    1.4389914460e-02    1.4536181250e+05
    1.4399968088e-02    1.4519998438e+05
    1.4409756288e-02    1.4504337500e+05
    1.4419808984e-02    1.4488243750e+05
    1.4429861680e-02    1.4472143750e+05
    1.4439915307e-02    1.4456146875e+05
    1.4449968934e-02    1.4440235938e+05
    1.4459758066e-02    1.4424734375e+05
    1.4469812624e-02    1.4408829688e+05
    1.4479867183e-02    1.4393034375e+05
    1.4489921741e-02    1.4377304688e+05
    1.4499977231e-02    1.4361556250e+05
    1.4509767294e-02    1.4346256250e+05
    1.4519822784e-02    1.4330639062e+05
    1.4529877342e-02    1.4315073438e+05
    1.4539931901e-02    1.4299526562e+05
    1.4549987391e-02    1.4284023438e+05
    1.4559778385e-02    1.4268968750e+05
    1.4569833875e-02    1.4253556250e+05
    1.4579890296e-02    1.4238207812e+05
    1.4589946717e-02    1.4222892188e+05
    1.4599738643e-02    1.4207992188e+05
    1.4609795064e-02    1.4192751562e+05
    1.4619851485e-02    1.4177593750e+05
    1.4629908837e-02    1.4162460938e+05
    1.4639965259e-02    1.4147332812e+05
    1.4649758115e-02    1.4132665625e+05
    1.4659815468e-02    1.4117675000e+05
    1.4669873752e-02    1.4102693750e+05
    1.4679931104e-02    1.4087737500e+05
    1.4689989388e-02    1.4072871875e+05
    1.4699782245e-02    1.4058442188e+05
    1.4709840529e-02    1.4043620312e+05
    1.4719899744e-02    1.4028848438e+05
    1.4729958028e-02    1.4014143750e+05
    1.4739751816e-02    1.3999857812e+05
    1.4749811031e-02    1.3985217188e+05
    1.4759870246e-02    1.3970626562e+05
    1.4769929461e-02    1.3956078125e+05
    1.4779988676e-02    1.3941565625e+05
    1.4789784327e-02    1.3927471875e+05
    1.4799843542e-02    1.3913042188e+05
    1.4809902757e-02    1.3898664062e+05
    1.4819962904e-02    1.3884329688e+05
    1.4829758555e-02    1.3870393750e+05
    1.4839818701e-02    1.3856107812e+05
    1.4849879779e-02    1.3841887500e+05
    1.4859939925e-02    1.3827731250e+05
    1.4869736508e-02    1.3813959375e+05
    1.4879797585e-02    1.3799829688e+05
    1.4889858663e-02    1.3785773438e+05
    1.4899919741e-02    1.3771771875e+05
    1.4909981750e-02    1.3757776562e+05
    1.4919778332e-02    1.3744173438e+05
    1.4929840341e-02    1.3730270312e+05
    1.4939901419e-02    1.3716421875e+05
    1.4949963428e-02    1.3702596875e+05
    1.4959760942e-02    1.3689162500e+05
    1.4969823882e-02    1.3675406250e+05
    1.4979885891e-02    1.3661693750e+05
    1.4989948831e-02    1.3648020312e+05
    1.4999746345e-02    1.3634739062e+05
    1.5009809285e-02    1.3621139062e+05
    1.5019873157e-02    1.3607593750e+05
    1.5029936098e-02    1.3594082812e+05
    1.5039999038e-02    1.3580575000e+05
    1.5049798414e-02    1.3567457812e+05
    1.5059861355e-02    1.3554070312e+05
    1.5069925226e-02    1.3540726562e+05
    1.5079989098e-02    1.3527371875e+05
    1.5089788474e-02    1.3514396875e+05
    1.5099853277e-02    1.3501153125e+05
    1.5109917149e-02    1.3487956250e+05
    1.5119981952e-02    1.3474757812e+05
    1.5129781328e-02    1.3461935938e+05
    1.5139846131e-02    1.3448828125e+05
    1.5149911866e-02    1.3435756250e+05
    1.5159976669e-02    1.3422706250e+05
    1.5169776976e-02    1.3410042188e+05
    1.5179842710e-02    1.3397087500e+05
    1.5189908445e-02    1.3384160938e+05
    1.5199974179e-02    1.3371250000e+05
    1.5209774487e-02    1.3358707812e+05
    1.5219840221e-02    1.3345885938e+05
    1.5229906887e-02    1.3333114062e+05
    1.5239972621e-02    1.3320354688e+05
    1.5249773860e-02    1.3307945312e+05
    1.5259840526e-02    1.3295260938e+05
    1.5269907191e-02    1.3282631250e+05
    1.5279973857e-02    1.3270014062e+05
    1.5289776027e-02    1.3257743750e+05
    1.5299842693e-02    1.3245195312e+05
    1.5309910290e-02    1.3232693750e+05
    1.5319976956e-02    1.3220207812e+05
    1.5329780057e-02    1.3208082812e+05
    1.5339847654e-02    1.3195684375e+05
    1.5349915251e-02    1.3183317188e+05
    1.5359982848e-02    1.3170964062e+05
    1.5369785950e-02    1.3158968750e+05
    1.5379853547e-02    1.3146696875e+05
    1.5389922075e-02    1.3134460938e+05
    1.5399989672e-02    1.3122248438e+05
    1.5409793705e-02    1.3110384375e+05
    1.5419861302e-02    1.3098243750e+05
    1.5429930761e-02    1.3086150000e+05
    1.5439999290e-02    1.3074078125e+05
    1.5449802391e-02    1.3062335156e+05
    1.5459871851e-02    1.3050317969e+05
    1.5469940379e-02    1.3038350781e+05
    1.5479744412e-02    1.3026721094e+05
    1.5489813872e-02    1.3014799219e+05
    1.5499883331e-02    1.3002927344e+05
    1.5509952791e-02    1.2991087500e+05
    1.5519757755e-02    1.2979571875e+05
    1.5529827215e-02    1.2967780469e+05
    1.5539896674e-02    1.2956036719e+05
    1.5549967065e-02    1.2944316406e+05
    1.5559772030e-02    1.2932922656e+05
    1.5569842421e-02    1.2921264844e+05
    1.5579911880e-02    1.2909647656e+05
    1.5589982271e-02    1.2898058594e+05
    1.5599788167e-02    1.2886793750e+05
    1.5609858558e-02    1.2875252344e+05
    1.5619928949e-02    1.2863749219e+05
    1.5629999340e-02    1.2852283594e+05
    1.5639806166e-02    1.2841146094e+05
    1.5649875626e-02    1.2829735156e+05
    1.5659946948e-02    1.2818364844e+05
    1.5669753775e-02    1.2807316406e+05
    1.5679825097e-02    1.2795982031e+05
    1.5689896420e-02    1.2784690625e+05
    1.5699967742e-02    1.2773456250e+05
    1.5709774569e-02    1.2762532031e+05
    1.5719845891e-02    1.2751312500e+05
    1.5729917213e-02    1.2740138281e+05
    1.5739988536e-02    1.2729024219e+05
    1.5749795362e-02    1.2718219531e+05
    1.5759866685e-02    1.2707128125e+05
    1.5769939870e-02    1.2696071094e+05
    1.5779746696e-02    1.2685346875e+05
    1.5789818019e-02    1.2674361719e+05
    1.5799889341e-02    1.2663400781e+05
    1.5809962526e-02    1.2652475000e+05
    1.5819769353e-02    1.2641866406e+05
    1.5829842538e-02    1.2630988281e+05
    1.5839913860e-02    1.2620128906e+05
    1.5849987045e-02    1.2609314844e+05
    1.5859795734e-02    1.2598830469e+05
    1.5869867057e-02    1.2588077344e+05
    1.5879940242e-02    1.2577327344e+05
    1.5889748931e-02    1.2566902344e+05
    1.5899820253e-02    1.2556250000e+05
    1.5909893438e-02    1.2545613281e+05
    1.5919966623e-02    1.2534978906e+05
    1.5929775313e-02    1.2524661719e+05
    1.5939848498e-02    1.2514110156e+05
    1.5949921682e-02    1.2503581250e+05
    1.5959994867e-02    1.2493072656e+05
    1.5969801694e-02    1.2482878125e+05
    1.5979874879e-02    1.2472435156e+05
    1.5989949927e-02    1.2462005469e+05
    1.5999756753e-02    1.2451872656e+05
    1.6009831801e-02    1.2441511719e+05
    1.6019904986e-02    1.2431185156e+05
    1.6029978171e-02    1.2420871094e+05
    1.6039786860e-02    1.2410842969e+05
    1.6049860045e-02    1.2400586719e+05
    1.6059933230e-02    1.2390372656e+05
    1.6069741920e-02    1.2380436719e+05
    1.6079816967e-02    1.2370243750e+05
    1.6089890152e-02    1.2360091406e+05
    1.6099963337e-02    1.2349981250e+05
    1.6109772027e-02    1.2340152344e+05
    1.6119847074e-02    1.2330075000e+05
    1.6129920259e-02    1.2320031250e+05
    1.6139993444e-02    1.2310012500e+05
    1.6149802133e-02    1.2300278125e+05
    1.6159877181e-02    1.2290317969e+05
    1.6169950366e-02    1.2280389844e+05
    1.6179759055e-02    1.2270731250e+05
    1.6189834103e-02    1.2260831250e+05
    1.6199907288e-02    1.2250972656e+05
    1.6209982336e-02    1.2241147656e+05
    1.6219791025e-02    1.2231594531e+05
    1.6229864210e-02    1.2221797656e+05
    1.6239939258e-02    1.2212035156e+05
    1.6249747947e-02    1.2202571094e+05
    1.6259821132e-02    1.2192872656e+05
    1.6269896179e-02    1.2183184375e+05
    1.6279969364e-02    1.2173514844e+05
    1.6289778054e-02    1.2164133594e+05
    1.6299853101e-02    1.2154528125e+05
    1.6309926286e-02    1.2144946875e+05
    1.6319736838e-02    1.2135644531e+05
    1.6329810023e-02    1.2126115625e+05
    1.6339883208e-02    1.2116597656e+05
    1.6349958256e-02    1.2107107031e+05
    1.6359766945e-02    1.2097906250e+05
    1.6369841993e-02    1.2088483594e+05
    1.6379915178e-02    1.2079066406e+05
    1.6389988363e-02    1.2069669531e+05
    1.6399798915e-02    1.2060555469e+05
    1.6409872100e-02    1.2051225781e+05
    1.6419945285e-02    1.2041915625e+05
    1.6429755837e-02    1.2032871094e+05
    1.6439829022e-02    1.2023607031e+05
    1.6449902207e-02    1.2014361719e+05
    1.6459977254e-02    1.2005136719e+05
    1.6469785944e-02    1.1996187500e+05
    1.6479859129e-02    1.1987032031e+05
    1.6489934176e-02    1.1977886719e+05
    1.6499742866e-02    1.1968986719e+05
    1.6509816051e-02    1.1959885156e+05
    1.6519891098e-02    1.1950825781e+05
    1.6529964283e-02    1.1941775000e+05
    1.6539772972e-02    1.1932969531e+05
    1.6549846157e-02    1.1923964844e+05
    1.6559921205e-02    1.1914997656e+05
    1.6569994390e-02    1.1906041406e+05
    1.6579803079e-02    1.1897324219e+05
    1.6589878127e-02    1.1888400781e+05
    1.6599951312e-02    1.1879517969e+05
    1.6609760001e-02    1.1870892969e+05
    1.6619833186e-02    1.1862046094e+05
    1.6629908234e-02    1.1853215625e+05
    1.6639981419e-02    1.1844416406e+05
    1.6649790108e-02    1.1835871875e+05
    1.6659863293e-02    1.1827112500e+05
    1.6669936478e-02    1.1818383594e+05
    1.6679745167e-02    1.1809910156e+05
    1.6689820215e-02    1.1801219531e+05
    1.6699893400e-02    1.1792541406e+05
    1.6709966585e-02    1.1783902344e+05
    1.6719775274e-02    1.1775517969e+05
    1.6729848459e-02    1.1766914844e+05
    1.6739923507e-02    1.1758328906e+05
    1.6749996692e-02    1.1749775000e+05
    1.6759805381e-02    1.1741467969e+05
    1.6769878566e-02    1.1732953906e+05
    1.6779953614e-02    1.1724464844e+05
    1.6789762303e-02    1.1716221094e+05
    1.6799835488e-02    1.1707766406e+05
    1.6809910536e-02    1.1699335156e+05
    1.6819985583e-02    1.1690933594e+05
    1.6829794273e-02    1.1682775000e+05
    1.6839869320e-02    1.1674407031e+05
    1.6849944368e-02    1.1666056250e+05
    1.6859754920e-02    1.1657959375e+05
    1.6869829968e-02    1.1649671875e+05
    1.6879905015e-02    1.1641390625e+05
    1.6889981925e-02    1.1633115625e+05
    1.6899792477e-02    1.1625087500e+05
    1.6909869388e-02    1.1616877344e+05
    1.6919946298e-02    1.1608685156e+05
    1.6929756850e-02    1.1600724219e+05
    1.6939835623e-02    1.1592566406e+05
    1.6949912533e-02    1.1584425781e+05
    1.6959989443e-02    1.1576306250e+05
    1.6969801858e-02    1.1568427344e+05
    1.6979880631e-02    1.1560359375e+05
    1.6989959404e-02    1.1552302344e+05
    1.6999773681e-02    1.1544472656e+05
    1.7009852454e-02    1.1536457031e+05
    1.7019931227e-02    1.1528466406e+05
    1.7029747367e-02    1.1520696875e+05
    1.7039826140e-02    1.1512731250e+05
    1.7049906775e-02    1.1504797656e+05
    1.7059987411e-02    1.1496896094e+05
    1.7069803551e-02    1.1489208594e+05
    1.7079884186e-02    1.1481314844e+05
    1.7089966685e-02    1.1473452344e+05
    1.7099782825e-02    1.1465830469e+05
    1.7109865323e-02    1.1458015625e+05
    1.7119947821e-02    1.1450210156e+05
    1.7129765823e-02    1.1442636719e+05
    1.7139852047e-02    1.1434878906e+05
    1.7149936408e-02    1.1427133594e+05
    1.7159756273e-02    1.1419613281e+05
    1.7169842497e-02    1.1411915625e+05
    1.7179930583e-02    1.1404228906e+05
    1.7189750448e-02    1.1396752344e+05
    1.7199836671e-02    1.1389096094e+05
    1.7209922895e-02    1.1381475000e+05
    1.7219744623e-02    1.1374069531e+05
    1.7229830846e-02    1.1366467969e+05
    1.7239918932e-02    1.1358886719e+05
    1.7249740660e-02    1.1351533594e+05
    1.7259828746e-02    1.1343997656e+05
    1.7269916832e-02    1.1336475781e+05
    1.7279740423e-02    1.1329177344e+05
    1.7289830372e-02    1.1321705469e+05
    1.7299922183e-02    1.1314244531e+05
    1.7309745774e-02    1.1307000000e+05
    1.7319837585e-02    1.1299592969e+05
    1.7329929397e-02    1.1292196875e+05
    1.7339756712e-02    1.1284996875e+05
    1.7349850386e-02    1.1277627344e+05
    1.7359944060e-02    1.1270292969e+05
    1.7369773239e-02    1.1263159375e+05
    1.7379870638e-02    1.1255825781e+05
    1.7389968038e-02    1.1248502344e+05
    1.7399802804e-02    1.1241397656e+05
    1.7409902066e-02    1.1234124219e+05
    1.7419736832e-02    1.1227046094e+05
    1.7429837957e-02    1.1219787500e+05
    1.7439939082e-02    1.1212553906e+05
    1.7449775711e-02    1.1205531250e+05
    1.7459878698e-02    1.1198333594e+05
    1.7469981685e-02    1.1191166406e+05
    1.7479820177e-02    1.1184222656e+05
    1.7489926890e-02    1.1177107031e+05
    1.7499765381e-02    1.1170200000e+05
    1.7509873956e-02    1.1163138281e+05
    1.7519984394e-02    1.1156103906e+05
    1.7529830337e-02    1.1149269531e+05
    1.7539942637e-02    1.1142267969e+05
    1.7549788579e-02    1.1135462500e+05
    1.7559902743e-02    1.1128475781e+05
    1.7569752410e-02    1.1121678906e+05
    1.7579870299e-02    1.1114705469e+05
    1.7589988187e-02    1.1107728125e+05
    1.7599839717e-02    1.1100924219e+05
    1.7609959468e-02    1.1093936719e+05
    1.7619814724e-02    1.1087142969e+05
    1.7629940063e-02    1.1080171094e+05
    1.7639797181e-02    1.1073387500e+05
    1.7649924383e-02    1.1066441406e+05
    1.7659785226e-02    1.1059713281e+05
    1.7669914290e-02    1.1052828125e+05
    1.7679780722e-02    1.1046143750e+05
    1.7689911649e-02    1.1039324219e+05
    1.7699778080e-02    1.1032736719e+05
    1.7709912732e-02    1.1026013281e+05
    1.7719782889e-02    1.1019502344e+05
    1.7729923129e-02    1.1012856250e+05
    1.7739795148e-02    1.1006424219e+05
    1.7749935389e-02    1.0999843750e+05
    1.7759812996e-02    1.0993453906e+05
    1.7769958824e-02    1.0986902344e+05
    1.7779840156e-02    1.0980517969e+05
    1.7789987847e-02    1.0973943750e+05
    1.7799869180e-02    1.0967528906e+05
    1.7809752375e-02    1.0961097656e+05
    1.7819909379e-02    1.0954459375e+05
    1.7829796299e-02    1.0947958594e+05
    1.7839955166e-02    1.0941264844e+05
    1.7849845812e-02    1.0934753906e+05
    1.7859738320e-02    1.0928242969e+05
    1.7869904637e-02    1.0921547656e+05
    1.7879802734e-02    1.0915049219e+05
    1.7889969051e-02    1.0908403906e+05
    1.7899870872e-02    1.0901957031e+05
    1.7909774557e-02    1.0895546094e+05
    1.7919946462e-02    1.0889014844e+05
    1.7929855734e-02    1.0882697656e+05
    1.7939763144e-02    1.0876415625e+05
    1.7949940637e-02    1.0870010156e+05
    1.7959857360e-02    1.0863827344e+05
    1.7969774082e-02    1.0857692969e+05
    1.7979959026e-02    1.0851425000e+05
    1.7989877611e-02    1.0845360156e+05
    1.7999794334e-02    1.0839350781e+05
    1.8009984866e-02    1.0833210156e+05
    1.8019910902e-02    1.0827244531e+05
    1.8029838800e-02    1.0821289844e+05
    1.8039770424e-02    1.0815339844e+05
    1.8049968407e-02    1.0809217969e+05
    1.8059898168e-02    1.0803236719e+05
    1.8069837242e-02    1.0797236719e+05
    1.8079772592e-02    1.0791216406e+05
    1.8089981750e-02    1.0784993750e+05
    1.8099926412e-02    1.0778906250e+05
    1.8109867349e-02    1.0772810156e+05
    1.8119813874e-02    1.0766699219e+05
    1.8129762262e-02    1.0760575000e+05
    1.8139975145e-02    1.0754293750e+05
    1.8149925396e-02    1.0748196094e+05
    1.8159879372e-02    1.0742114844e+05
    1.8169831485e-02    1.0736046875e+05
    1.8179789186e-02    1.0729996875e+05
    1.8189745024e-02    1.0723977344e+05
    1.8199972808e-02    1.0717814844e+05
    1.8209939823e-02    1.0711833594e+05
    1.8219904974e-02    1.0705883594e+05
    1.8229870126e-02    1.0699959375e+05
    1.8239840865e-02    1.0694053906e+05
    1.8249807879e-02    1.0688175781e+05
    1.8259782344e-02    1.0682324219e+05
    1.8269758672e-02    1.0676491406e+05
    1.8279738724e-02    1.0670677344e+05
    1.8289990723e-02    1.0664740625e+05
    1.8299974501e-02    1.0658994531e+05
    1.8309956416e-02    1.0653271094e+05
    1.8319942057e-02    1.0647564844e+05
    1.8329927698e-02    1.0641880469e+05
    1.8339917064e-02    1.0636221094e+05
    1.8349912018e-02    1.0630578906e+05
    1.8359908834e-02    1.0624958594e+05
    1.8369905651e-02    1.0619352344e+05
    1.8379906192e-02    1.0613747656e+05
    1.8389903009e-02    1.0608149219e+05
    1.8399903551e-02    1.0602565625e+05
    1.8409907818e-02    1.0596990625e+05
    1.8419915810e-02    1.0591400781e+05
    1.8429925665e-02    1.0585800000e+05
    1.8439937383e-02    1.0580215625e+05
    1.8449949101e-02    1.0574646875e+05
    1.8459964544e-02    1.0569067969e+05
    1.8469983712e-02    1.0563487500e+05
    1.8479999155e-02    1.0557922656e+05
    1.8489751965e-02    1.0552516406e+05
    1.8499774858e-02    1.0546972656e+05
    1.8509801477e-02    1.0541452344e+05
    1.8519829959e-02    1.0535950781e+05
    1.8529858440e-02    1.0530459375e+05
    1.8539890647e-02    1.0524981250e+05
    1.8549926579e-02    1.0519531250e+05
    1.8559958786e-02    1.0514103906e+05
    1.8569996580e-02    1.0508678906e+05
    1.8579764292e-02    1.0503406250e+05
    1.8589805812e-02    1.0498014844e+05
    1.8599851057e-02    1.0492641406e+05
    1.8609900028e-02    1.0487265625e+05
    1.8619948998e-02    1.0481891406e+05
    1.8629729748e-02    1.0476677344e+05
    1.8639782444e-02    1.0471324219e+05
    1.8649835140e-02    1.0465975781e+05
    1.8659895286e-02    1.0460639844e+05
    1.8669957295e-02    1.0455314844e+05
    1.8679751083e-02    1.0450130469e+05
    1.8689822406e-02    1.0444808594e+05
    1.8699893728e-02    1.0439508594e+05
    1.8709965050e-02    1.0434219531e+05
    1.8719768152e-02    1.0429071094e+05
    1.8729845062e-02    1.0423789844e+05
    1.8739923835e-02    1.0418533594e+05
    1.8749736249e-02    1.0413433594e+05
    1.8759824336e-02    1.0408193750e+05
    1.8769914284e-02    1.0402960156e+05
    1.8779734150e-02    1.0397886719e+05
    1.8789825961e-02    1.0392683594e+05
    1.8799921498e-02    1.0387489844e+05
    1.8809746951e-02    1.0382452344e+05
    1.8819846213e-02    1.0377290625e+05
    1.8829949200e-02    1.0372131250e+05
    1.8839783967e-02    1.0367121094e+05
    1.8849892542e-02    1.0361991406e+05
    1.8859731033e-02    1.0357010156e+05
    1.8869845197e-02    1.0351897656e+05
    1.8879959360e-02    1.0346803125e+05
    1.8889803439e-02    1.0341862500e+05
    1.8899923190e-02    1.0336788281e+05
    1.8909770995e-02    1.0331853125e+05
    1.8919896334e-02    1.0326797656e+05
    1.8929749727e-02    1.0321902344e+05
    1.8939878792e-02    1.0316880469e+05
    1.8949735910e-02    1.0311996094e+05
    1.8959868699e-02    1.0306985156e+05
    1.8969725817e-02    1.0302128125e+05
    1.8979860470e-02    1.0297146094e+05
    1.8989996985e-02    1.0292178125e+05
    1.8999861553e-02    1.0287355469e+05
    1.9009729847e-02    1.0282535156e+05
    1.9019871950e-02    1.0277589844e+05
    1.9029742107e-02    1.0272803125e+05
    1.9039887935e-02    1.0267900000e+05
    1.9049759954e-02    1.0263130469e+05
    1.9059909508e-02    1.0258234375e+05
    1.9069788978e-02    1.0253487500e+05
    1.9079944119e-02    1.0248624219e+05
    1.9089827314e-02    1.0243903906e+05
    1.9099982455e-02    1.0239071094e+05
    1.9109860063e-02    1.0234378125e+05
    1.9119732082e-02    1.0229692969e+05
    1.9129872322e-02    1.0224896094e+05
    1.9139733166e-02    1.0220253906e+05
    1.9149864092e-02    1.0215496094e+05
    1.9159989432e-02    1.0210740625e+05
    1.9169922918e-02    1.0206092969e+05
    1.9179744646e-02    1.0201524219e+05
    1.9189724699e-02    1.0196885156e+05
    1.9199859351e-02    1.0192168750e+05
    1.9209854305e-02    1.0187535156e+05
    1.9219992682e-02    1.0182859375e+05
    1.9229969010e-02    1.0178263281e+05
    1.9239773974e-02    1.0173750000e+05
    1.9249707460e-02    1.0169192969e+05
    1.9259763882e-02    1.0164591406e+05
    1.9269946963e-02    1.0159938281e+05
    1.9279934466e-02    1.0155385156e+05
    1.9289713353e-02    1.0150941406e+05
    1.9299929962e-02    1.0146305469e+05
    1.9309930503e-02    1.0141768750e+05
    1.9319703802e-02    1.0137349219e+05
    1.9329920411e-02    1.0132752344e+05
    1.9339902326e-02    1.0128264844e+05
    1.9349981099e-02    1.0123735156e+05
    1.9359812140e-02    1.0119335156e+05
    1.9369743764e-02    1.0114914844e+05
    1.9379768521e-02    1.0110453906e+05
    1.9389877096e-02    1.0105962500e+05
    1.9399723038e-02    1.0101603906e+05
    1.9409656525e-02    1.0097216406e+05
    1.9419666380e-02    1.0092806250e+05
    1.9429761916e-02    1.0088372656e+05
    1.9439939409e-02    1.0083915625e+05
[...]
    1.1513994634e-01    1.0122091406e+05
    1.1514981836e-01    1.0122090625e+05
    1.1515969783e-01    1.0122090625e+05
    1.1516987532e-01    1.0122089844e+05
    1.1517974734e-01    1.0122089844e+05
    1.1518993229e-01    1.0122088281e+05
    1.1519980431e-01    1.0122088281e+05
    1.1520998925e-01    1.0122087500e+05
    1.1521986127e-01    1.0122086719e+05
    1.1522973329e-01    1.0122085156e+05
    1.1523991823e-01    1.0122085156e+05
    1.1524979025e-01    1.0122085156e+05
    1.1525997519e-01    1.0122084375e+05
    1.1526984721e-01    1.0122083594e+05
    1.1527971923e-01    1.0122083594e+05
    1.1528990418e-01    1.0122083594e+05
    1.1529977620e-01    1.0122082031e+05
    1.1530996114e-01    1.0122082031e+05
    1.1531983316e-01    1.0122081250e+05
    1.1532970518e-01    1.0122080469e+05
    1.1533989012e-01    1.0122078906e+05
    1.1534976214e-01    1.0122078906e+05
    1.1535994709e-01    1.0122078906e+05
    1.1536981910e-01    1.0122078125e+05
    1.1537969112e-01    1.0122077344e+05
    1.1538987607e-01    1.0122077344e+05
    1.1539974809e-01    1.0122077344e+05
    1.1540993303e-01    1.0122075781e+05
    1.1541980505e-01    1.0122075000e+05
    1.1542998999e-01    1.0122075000e+05
    1.1543986201e-01    1.0122074219e+05
    1.1544973403e-01    1.0122072656e+05
    1.1545991898e-01    1.0122072656e+05
    1.1546979100e-01    1.0122072656e+05
    1.1547997594e-01    1.0122071875e+05
    1.1548984796e-01    1.0122071875e+05
    1.1549971998e-01    1.0122071094e+05
    1.1550990492e-01    1.0122071094e+05
    1.1551977694e-01    1.0122069531e+05
    1.1552996188e-01    1.0122069531e+05
    1.1553983390e-01    1.0122068750e+05
    1.1554970592e-01    1.0122067969e+05
    1.1555989087e-01    1.0122067969e+05
    1.1556976289e-01    1.0122066406e+05
    1.1557994783e-01    1.0122066406e+05
    1.1558981985e-01    1.0122065625e+05
    1.1559969187e-01    1.0122065625e+05
    1.1560987681e-01    1.0122064844e+05
    1.1561974883e-01    1.0122064844e+05
    1.1562993377e-01    1.0122063281e+05
    1.1563980579e-01    1.0122063281e+05
    1.1564998329e-01    1.0122062500e+05
    1.1565986276e-01    1.0122061719e+05
    1.1566973478e-01    1.0122061719e+05
    1.1567991972e-01    1.0122060156e+05
    1.1568979174e-01    1.0122060156e+05
    1.1569996923e-01    1.0122060156e+05
    1.1570984870e-01    1.0122059375e+05
    1.1571972072e-01    1.0122058594e+05
    1.1572990566e-01    1.0122058594e+05
    1.1573977768e-01    1.0122058594e+05
    1.1574995518e-01    1.0122057031e+05
    1.1575983465e-01    1.0122056250e+05
    1.1576970667e-01    1.0122056250e+05
    1.1577989161e-01    1.0122055469e+05
    1.1578976363e-01    1.0122053906e+05
    1.1579994112e-01    1.0122053906e+05
    1.1580982059e-01    1.0122053906e+05
    1.1581969261e-01    1.0122053125e+05
    1.1582987756e-01    1.0122052344e+05
    1.1583974957e-01    1.0122052344e+05
    1.1584992707e-01    1.0122052344e+05
    1.1585980654e-01    1.0122050781e+05
    1.1586998403e-01    1.0122050000e+05
    1.1587986350e-01    1.0122050000e+05
    1.1588973552e-01    1.0122049219e+05
    1.1589991301e-01    1.0122047656e+05
    1.1590979248e-01    1.0122047656e+05
    1.1591996998e-01    1.0122047656e+05
    1.1592984945e-01    1.0122046875e+05
    1.1593972147e-01    1.0122046094e+05
    1.1594989896e-01    1.0122046094e+05
    1.1595977843e-01    1.0122046094e+05
    1.1596995592e-01    1.0122044531e+05
    1.1597982794e-01    1.0122043750e+05
    1.1598970741e-01    1.0122042969e+05
    1.1599988490e-01    1.0122042969e+05
    1.1600976437e-01    1.0122041406e+05
    1.1601994187e-01    1.0122041406e+05
    1.1602981389e-01    1.0122041406e+05
    1.1603999883e-01    1.0122040625e+05
    1.1604987085e-01    1.0122039844e+05
    1.1605975032e-01    1.0122039844e+05
    1.1606992781e-01    1.0122039844e+05
    1.1607979983e-01    1.0122038281e+05
    1.1608998477e-01    1.0122038281e+05
    1.1609985679e-01    1.0122037500e+05
    1.1610973626e-01    1.0122036719e+05
    1.1611991376e-01    1.0122035156e+05
    1.1612978578e-01    1.0122035156e+05
    1.1613997072e-01    1.0122035156e+05
    1.1614984274e-01    1.0122034375e+05
    1.1615972221e-01    1.0122034375e+05
    1.1616989970e-01    1.0122033594e+05
    1.1617977172e-01    1.0122033594e+05
    1.1618995667e-01    1.0122033594e+05
    1.1619982868e-01    1.0122032031e+05
    1.1620970815e-01    1.0122031250e+05
    1.1621988565e-01    1.0122030469e+05
    1.1622975767e-01    1.0122030469e+05
    1.1623994261e-01    1.0122028906e+05
    1.1624981463e-01    1.0122028906e+05
    1.1625999957e-01    1.0122028906e+05
    1.1626987159e-01    1.0122028125e+05
    1.1627974361e-01    1.0122027344e+05
    1.1628992856e-01    1.0122027344e+05
    1.1629980057e-01    1.0122027344e+05
    1.1630998552e-01    1.0122025781e+05
    1.1631985754e-01    1.0122025000e+05
    1.1632972956e-01    1.0122025000e+05
    1.1633991450e-01    1.0122024219e+05
    1.1634978652e-01    1.0122022656e+05
    1.1635997146e-01    1.0122022656e+05
    1.1636984348e-01    1.0122022656e+05
    1.1637971550e-01    1.0122021875e+05
    1.1638990045e-01    1.0122021875e+05
    1.1639977247e-01    1.0122021094e+05
    1.1640995741e-01    1.0122021094e+05
    1.1641982943e-01    1.0122021094e+05
    1.1642970145e-01    1.0122019531e+05
    1.1643988639e-01    1.0122018750e+05
    1.1644975841e-01    1.0122018750e+05
    1.1645994335e-01    1.0122017969e+05
    1.1646981537e-01    1.0122016406e+05
    1.1648000032e-01    1.0122016406e+05
    1.1648987234e-01    1.0122016406e+05
    1.1649974436e-01    1.0122015625e+05
    1.1650992930e-01    1.0122015625e+05
    1.1651980132e-01    1.0122014844e+05
    1.1652998626e-01    1.0122014844e+05
    1.1653985828e-01    1.0122014844e+05
    1.1654973030e-01    1.0122013281e+05
    1.1655991524e-01    1.0122012500e+05
    1.1656978726e-01    1.0122011719e+05
    1.1657997221e-01    1.0122011719e+05
    1.1658984423e-01    1.0122010156e+05
    1.1659971625e-01    1.0122010156e+05
    1.1660990119e-01    1.0122009375e+05
    1.1661977321e-01    1.0122008594e+05
    1.1662995815e-01    1.0122008594e+05
    1.1663983017e-01    1.0122008594e+05
    1.1664970219e-01    1.0122007031e+05
    1.1665988714e-01    1.0122006250e+05
    1.1666975915e-01    1.0122006250e+05
    1.1667994410e-01    1.0122005469e+05
    1.1668981612e-01    1.0122003906e+05
    1.1670000106e-01    1.0122003906e+05
    1.1670987308e-01    1.0122003906e+05
    1.1671974510e-01    1.0122003125e+05
    1.1672993004e-01    1.0122002344e+05
    1.1673980206e-01    1.0122002344e+05
    1.1674998701e-01    1.0122002344e+05
    1.1675985903e-01    1.0122000781e+05
    1.1676973104e-01    1.0122000000e+05
    1.1677991599e-01    1.0122000000e+05
    1.1678978801e-01    1.0121999219e+05
    1.1679997295e-01    1.0121997656e+05
    1.1680984497e-01    1.0121997656e+05
    1.1681971699e-01    1.0121997656e+05
    1.1682990193e-01    1.0121996875e+05
    1.1683977395e-01    1.0121996094e+05
    1.1684995890e-01    1.0121996094e+05
    1.1685983092e-01    1.0121996094e+05
    1.1686970294e-01    1.0121994531e+05
    1.1687988788e-01    1.0121994531e+05
    1.1688975990e-01    1.0121993750e+05
    1.1689993739e-01    1.0121993750e+05
    1.1690981686e-01    1.0121992969e+05
    1.1691999435e-01    1.0121991406e+05
    1.1692987382e-01    1.0121991406e+05
    1.1693974584e-01    1.0121991406e+05
    1.1694992334e-01    1.0121990625e+05
    1.1695980281e-01    1.0121989844e+05
    1.1696998030e-01    1.0121989844e+05
    1.1697985977e-01    1.0121989844e+05
    1.1698973179e-01    1.0121987500e+05
    1.1699990928e-01    1.0121986719e+05
    1.1700978875e-01    1.0121986719e+05
    1.1701996624e-01    1.0121985156e+05
    1.1702984571e-01    1.0121985156e+05
    1.1703971773e-01    1.0121985156e+05
    1.1704989523e-01    1.0121984375e+05
    1.1705977470e-01    1.0121984375e+05
    1.1706995219e-01    1.0121984375e+05
    1.1707983166e-01    1.0121984375e+05
    1.1708970368e-01    1.0121983594e+05
    1.1709988117e-01    1.0121983594e+05
    1.1710976064e-01    1.0121983594e+05
    1.1711993814e-01    1.0121983594e+05
    1.1712981761e-01    1.0121982031e+05
    1.1713999510e-01    1.0121981250e+05
    1.1714986712e-01    1.0121980469e+05
    1.1715974659e-01    1.0121978906e+05
    1.1716992408e-01    1.0121978906e+05
    1.1717980355e-01    1.0121978125e+05
    1.1718998104e-01    1.0121977344e+05
    1.1719985306e-01    1.0121977344e+05
    1.1720973253e-01    1.0121977344e+05
    1.1721991003e-01    1.0121975781e+05
    1.1722978950e-01    1.0121975781e+05
    1.1723996699e-01    1.0121975000e+05
    1.1724983901e-01    1.0121975000e+05
    1.1725971848e-01    1.0121974219e+05
    1.1726989597e-01    1.0121972656e+05
    1.1727977544e-01    1.0121972656e+05
    1.1728995293e-01    1.0121971875e+05
    1.1729982495e-01    1.0121971094e+05
    1.1730970442e-01    1.0121971094e+05
    1.1731988192e-01    1.0121971094e+05
    1.1732976139e-01    1.0121969531e+05
    1.1733993888e-01    1.0121968750e+05
    1.1734981090e-01    1.0121968750e+05
    1.1735999584e-01    1.0121967969e+05
    1.1736986786e-01    1.0121967969e+05
    1.1737974733e-01    1.0121966406e+05
    1.1738992482e-01    1.0121966406e+05
    1.1739979684e-01    1.0121966406e+05
    1.1740998179e-01    1.0121965625e+05
    1.1741985381e-01    1.0121964844e+05
    1.1742973328e-01    1.0121964844e+05
    1.1743991077e-01    1.0121964844e+05
    1.1744978279e-01    1.0121963281e+05
    1.1745996773e-01    1.0121963281e+05
    1.1746983975e-01    1.0121962500e+05
    1.1747971922e-01    1.0121962500e+05
    1.1748989671e-01    1.0121961719e+05
    1.1749976873e-01    1.0121961719e+05
    1.1750995368e-01    1.0121960156e+05
    1.1751982570e-01    1.0121960156e+05
    1.1752970517e-01    1.0121960156e+05
    1.1753988266e-01    1.0121959375e+05
    1.1754975468e-01    1.0121958594e+05
    1.1755993962e-01    1.0121958594e+05
    1.1756981164e-01    1.0121957031e+05
    1.1757999659e-01    1.0121957031e+05
    1.1758986861e-01    1.0121956250e+05
    1.1759974062e-01    1.0121955469e+05
    1.1760992557e-01    1.0121955469e+05
    1.1761979759e-01    1.0121953906e+05
    1.1762998253e-01    1.0121953906e+05
    1.1763985455e-01    1.0121953906e+05
    1.1764972657e-01    1.0121953125e+05
    1.1765991151e-01    1.0121953125e+05
    1.1766978353e-01    1.0121952344e+05
    1.1767996848e-01    1.0121952344e+05
    1.1768984050e-01    1.0121952344e+05
    1.1769971251e-01    1.0121950781e+05
    1.1770989746e-01    1.0121950781e+05
    1.1771976948e-01    1.0121950000e+05
    1.1772995442e-01    1.0121949219e+05
    1.1773982644e-01    1.0121947656e+05
    1.1774969846e-01    1.0121947656e+05
    1.1775988340e-01    1.0121947656e+05
    1.1776975542e-01    1.0121946875e+05
    1.1777994037e-01    1.0121946875e+05
    1.1778981239e-01    1.0121946094e+05
    1.1779999733e-01    1.0121946094e+05
    1.1780986935e-01    1.0121946094e+05
    1.1781974137e-01    1.0121944531e+05
    1.1782992631e-01    1.0121943750e+05
    1.1783979833e-01    1.0121943750e+05
    1.1784998327e-01    1.0121942969e+05
    1.1785985529e-01    1.0121942969e+05
    1.1786972731e-01    1.0121941406e+05
    1.1787991226e-01    1.0121941406e+05
    1.1788978428e-01    1.0121941406e+05
    1.1789996922e-01    1.0121940625e+05
    1.1790984124e-01    1.0121939844e+05
    1.1791971326e-01    1.0121939844e+05
    1.1792989820e-01    1.0121939844e+05
    1.1793977022e-01    1.0121938281e+05
    1.1794995517e-01    1.0121938281e+05
    1.1795982718e-01    1.0121937500e+05
    1.1796969920e-01    1.0121936719e+05
    1.1797988415e-01    1.0121936719e+05
    1.1798975617e-01    1.0121935156e+05
    1.1799994111e-01    1.0121935156e+05
    1.1800981313e-01    1.0121935156e+05
    1.1801999807e-01    1.0121934375e+05
    1.1802987009e-01    1.0121933594e+05
    1.1803974211e-01    1.0121933594e+05
    1.1804992706e-01    1.0121933594e+05
    1.1805979908e-01    1.0121932031e+05
    1.1806998402e-01    1.0121932031e+05
    1.1807985604e-01    1.0121931250e+05
    1.1808972806e-01    1.0121930469e+05
    1.1809991300e-01    1.0121930469e+05
    1.1810978502e-01    1.0121928906e+05
    1.1811996996e-01    1.0121928906e+05
    1.1812984198e-01    1.0121928906e+05
    1.1813971400e-01    1.0121928125e+05
    1.1814989895e-01    1.0121927344e+05
    1.1815977097e-01    1.0121927344e+05
    1.1816995591e-01    1.0121927344e+05
    1.1817982793e-01    1.0121925781e+05
    1.1818969995e-01    1.0121925781e+05
    1.1819988489e-01    1.0121925000e+05
    1.1820975691e-01    1.0121924219e+05
    1.1821994185e-01    1.0121924219e+05
    1.1822981387e-01    1.0121922656e+05
    1.1823999882e-01    1.0121922656e+05
    1.1824987084e-01    1.0121922656e+05
    1.1825974286e-01    1.0121921875e+05
    1.1826992780e-01    1.0121921094e+05
    1.1827979982e-01    1.0121921094e+05
    1.1828998476e-01    1.0121921094e+05
    1.1829985678e-01    1.0121919531e+05
    1.1830972880e-01    1.0121919531e+05
    1.1831991374e-01    1.0121918750e+05
    1.1832978576e-01    1.0121918750e+05
    1.1833997071e-01    1.0121917969e+05
    1.1834984273e-01    1.0121916406e+05
    1.1835971475e-01    1.0121916406e+05
    1.1836989969e-01    1.0121916406e+05
    1.1837977171e-01    1.0121915625e+05
    1.1838995665e-01    1.0121914844e+05
    1.1839982867e-01    1.0121914844e+05
    1.1840970069e-01    1.0121914844e+05
    1.1841988564e-01    1.0121913281e+05
    1.1842975765e-01    1.0121913281e+05
    1.1843994260e-01    1.0121912500e+05
    1.1844981462e-01    1.0121912500e+05
    1.1845999956e-01    1.0121911719e+05
    1.1846987158e-01    1.0121910156e+05
    1.1847974360e-01    1.0121910156e+05
    1.1848992854e-01    1.0121910156e+05
    1.1849980056e-01    1.0121909375e+05
    1.1850998551e-01    1.0121909375e+05
    1.1851985753e-01    1.0121908594e+05
    1.1852972955e-01    1.0121908594e+05
    1.1853991449e-01    1.0121908594e+05
    1.1854978651e-01    1.0121907031e+05
    1.1855997145e-01    1.0121906250e+05
    1.1856984347e-01    1.0121906250e+05
    1.1857971549e-01    1.0121905469e+05
    1.1858990043e-01    1.0121903906e+05
    1.1859977245e-01    1.0121903906e+05
    1.1860995740e-01    1.0121903906e+05
    1.1861982942e-01    1.0121903125e+05
    1.1862970144e-01    1.0121903125e+05
    1.1863988638e-01    1.0121902344e+05
    1.1864975840e-01    1.0121902344e+05
    1.1865994334e-01    1.0121902344e+05
    1.1866981536e-01    1.0121902344e+05
    1.1868000031e-01    1.0121900781e+05
    1.1868987232e-01    1.0121900000e+05
    1.1869974434e-01    1.0121900000e+05
    1.1870992929e-01    1.0121899219e+05
    1.1871980131e-01    1.0121897656e+05
    1.1872998625e-01    1.0121897656e+05
    1.1873985827e-01    1.0121897656e+05
    1.1874973029e-01    1.0121896875e+05
    1.1875991523e-01    1.0121896094e+05
    1.1876978725e-01    1.0121896094e+05
    1.1877997220e-01    1.0121896094e+05
    1.1878984421e-01    1.0121896094e+05
    1.1879971623e-01    1.0121894531e+05
    1.1880990118e-01    1.0121893750e+05
    1.1881977320e-01    1.0121893750e+05
    1.1882995814e-01    1.0121892969e+05
    1.1883983016e-01    1.0121891406e+05
    1.1884970218e-01    1.0121891406e+05
    1.1885988712e-01    1.0121891406e+05
    1.1886975914e-01    1.0121891406e+05
    1.1887994409e-01    1.0121890625e+05
    1.1888981611e-01    1.0121889844e+05
    1.1889999360e-01    1.0121889844e+05
    1.1890987307e-01    1.0121889844e+05
    1.1891974509e-01    1.0121888281e+05
    1.1892993003e-01    1.0121888281e+05
    1.1893980205e-01    1.0121887500e+05
    1.1894997954e-01    1.0121886719e+05
    1.1895985901e-01    1.0121886719e+05
    1.1896973103e-01    1.0121885156e+05
    1.1897991598e-01    1.0121885156e+05
    1.1898978800e-01    1.0121885156e+05
    1.1899996549e-01    1.0121884375e+05
    1.1900984496e-01    1.0121884375e+05
    1.1901971698e-01    1.0121883594e+05
    1.1902990192e-01    1.0121883594e+05
    1.1903977394e-01    1.0121883594e+05
    1.1904995143e-01    1.0121882031e+05
    1.1905983090e-01    1.0121881250e+05
    1.1906970292e-01    1.0121881250e+05
    1.1907988787e-01    1.0121880469e+05
    1.1908975989e-01    1.0121878906e+05
    1.1909993738e-01    1.0121878906e+05
    1.1910981685e-01    1.0121878906e+05
    1.1911999434e-01    1.0121878125e+05
    1.1912987381e-01    1.0121878125e+05
    1.1913974583e-01    1.0121877344e+05
    1.1914992332e-01    1.0121877344e+05
    1.1915980279e-01    1.0121877344e+05
    1.1916998029e-01    1.0121875781e+05
    1.1917985976e-01    1.0121875781e+05
    1.1918973178e-01    1.0121875000e+05
    1.1919991672e-01    1.0121874219e+05
    1.1920978874e-01    1.0121874219e+05
    1.1921996623e-01    1.0121872656e+05
    1.1922984570e-01    1.0121872656e+05
    1.1923971772e-01    1.0121872656e+05
    1.1924990267e-01    1.0121871875e+05
    1.1925977468e-01    1.0121871094e+05
    1.1926995218e-01    1.0121871094e+05
    1.1927983165e-01    1.0121871094e+05
    1.1928970367e-01    1.0121871094e+05
    1.1929988861e-01    1.0121869531e+05
    1.1930976063e-01    1.0121868750e+05
    1.1931993812e-01    1.0121868750e+05
    1.1932981759e-01    1.0121867969e+05
    1.1933999509e-01    1.0121866406e+05
    1.1934987456e-01    1.0121866406e+05
    1.1935974658e-01    1.0121866406e+05
    1.1936992407e-01    1.0121865625e+05
    1.1937980354e-01    1.0121865625e+05
    1.1938998103e-01    1.0121864844e+05
    1.1939986050e-01    1.0121864844e+05
    1.1940973252e-01    1.0121864844e+05
    1.1941991001e-01    1.0121863281e+05
    1.1942978948e-01    1.0121863281e+05
    1.1943996698e-01    1.0121862500e+05
    1.1944984645e-01    1.0121861719e+05
    1.1945971847e-01    1.0121861719e+05
    1.1946989596e-01    1.0121860156e+05
    1.1947977543e-01    1.0121860156e+05
    1.1948995292e-01    1.0121860156e+05
    1.1949983239e-01    1.0121859375e+05
    1.1950970441e-01    1.0121859375e+05
    1.1951988190e-01    1.0121858594e+05
    1.1952976137e-01    1.0121858594e+05
    1.1953993887e-01    1.0121858594e+05
    1.1954981834e-01    1.0121857031e+05
    1.1955999583e-01    1.0121857031e+05
    1.1956986785e-01    1.0121856250e+05
    1.1957974732e-01    1.0121855469e+05
    1.1958992481e-01    1.0121855469e+05
    1.1959980428e-01    1.0121853906e+05
    1.1960998178e-01    1.0121853906e+05
    1.1961985379e-01    1.0121853906e+05
    1.1962973326e-01    1.0121853125e+05
    1.1963991076e-01    1.0121853125e+05
    1.1964979023e-01    1.0121852344e+05
    1.1965996772e-01    1.0121852344e+05
    1.1966983974e-01    1.0121852344e+05
    1.1967971921e-01    1.0121850781e+05
    1.1968989670e-01    1.0121850781e+05
    1.1969977617e-01    1.0121850000e+05
    1.1970995367e-01    1.0121849219e+05
    1.1971983314e-01    1.0121849219e+05
    1.1972970515e-01    1.0121847656e+05
    1.1973988265e-01    1.0121847656e+05
    1.1974976212e-01    1.0121847656e+05
    1.1975993961e-01    1.0121846875e+05
    1.1976981908e-01    1.0121846875e+05
    1.1977999657e-01    1.0121846094e+05
    1.1978986859e-01    1.0121846094e+05
    1.1979974806e-01    1.0121846094e+05
    1.1980992556e-01    1.0121844531e+05
    1.1981980503e-01    1.0121843750e+05
    1.1982998252e-01    1.0121843750e+05
    1.1983985454e-01    1.0121842969e+05
    1.1984973401e-01    1.0121841406e+05
    1.1985991150e-01    1.0121841406e+05
    1.1986979097e-01    1.0121841406e+05
    1.1987996846e-01    1.0121841406e+05
    1.1988984048e-01    1.0121840625e+05
    1.1989971995e-01    1.0121840625e+05
    1.1990989745e-01    1.0121839844e+05
    1.1991977692e-01    1.0121839844e+05
    1.1992995441e-01    1.0121839844e+05
    1.1993982643e-01    1.0121838281e+05
    1.1994970590e-01    1.0121838281e+05
    1.1995988339e-01    1.0121837500e+05
    1.1996976286e-01    1.0121836719e+05
    1.1997994035e-01    1.0121836719e+05
    1.1998981237e-01    1.0121835156e+05
    1.1999999732e-01    1.0121835156e+05
endcurve
