Curveplot
LS-DYNA keyword deck by LS-PrePost                          
Time
Pressure
Defined Connection
Pressure @ 53 #pts=14001
* Minval=     9.6982414062e+04 at time=         0.0819899067
* Maxval=     1.1139997656e+05 at time=         0.0632098839
    0.0000000000e+00    1.0120000000e+05
    9.9483831946e-06    1.0120000000e+05
    1.9897121092e-05    1.0120000000e+05
    2.9970851756e-05    1.0120000000e+05
    3.9972728700e-05    1.0120000000e+05
    4.9942464102e-05    1.0120000000e+05
    5.9964815591e-05    1.0120000000e+05
    6.9975394581e-05    1.0120000000e+05
    7.9989666119e-05    1.0120000000e+05
    8.9957000455e-05    1.0120000000e+05
    9.9944481917e-05    1.0120000000e+05
    1.0993773321e-04    1.0120000000e+05
    1.1999607523e-04    1.0120000000e+05
    1.2996546866e-04    1.0120000000e+05
    1.3998232316e-04    1.0120000000e+05
    1.4996316168e-04    1.0120000000e+05
    1.5997528681e-04    1.0120000000e+05
    1.6993202735e-04    1.0120000000e+05
    1.7998424300e-04    1.0120000000e+05
    1.8996377185e-04    1.0120000000e+05
    1.9994299510e-04    1.0120000000e+05
    2.0999966364e-04    1.0120000000e+05
    2.1995708812e-04    1.0120000000e+05
    2.2997923952e-04    1.0120000000e+05
    2.3997324752e-04    1.0120000000e+05
    2.4993129773e-04    1.0120000000e+05
    2.5993687450e-04    1.0120000000e+05
    2.6998546673e-04    1.0120000000e+05
    2.7997812140e-04    1.0120000000e+05
    2.8999839560e-04    1.0120000000e+05
    2.9993624776e-04    1.0120000000e+05
    3.0997541035e-04    1.0120000000e+05
    3.1992173172e-04    1.0120000000e+05
    3.2996831578e-04    1.0120000000e+05
    3.3991641249e-04    1.0120000000e+05
    3.4996311297e-04    1.0120000000e+05
    3.5990565084e-04    1.0120000000e+05
    3.6994524999e-04    1.0120000000e+05
    3.7997917389e-04    1.0120000000e+05
    3.8990066969e-04    1.0120000000e+05
    3.9991713129e-04    1.0120000000e+05
    4.0992296999e-04    1.0120000000e+05
    4.1991632315e-04    1.0120000000e+05
    4.2989559006e-04    1.0120000000e+05
    4.3996915338e-04    1.0120000000e+05
    4.4991626055e-04    1.0120000000e+05
    4.5995623805e-04    1.0120000000e+05
    4.6997735626e-04    1.0120000000e+05
    4.7997772344e-04    1.0120000000e+05
    4.8995541874e-04    1.0120000000e+05
    4.9990857951e-04    1.0120000000e+05
    5.0995266065e-04    1.0120000000e+05
    5.1997078117e-04    1.0120000000e+05
    5.2996096201e-04    1.0120000000e+05
    5.3992122412e-04    1.0120000000e+05
    5.4997130064e-04    1.0120000000e+05
    5.5998982862e-04    1.0120000000e+05
    5.6997494539e-04    1.0120000000e+05
    5.7992473012e-04    1.0120000000e+05
    5.8996322332e-04    1.0120000000e+05
    5.9996463824e-04    1.0120000000e+05
    6.0992693761e-04    1.0120000000e+05
    6.1997753801e-04    1.0120000000e+05
    6.2998721842e-04    1.0120000000e+05
    6.3995382516e-04    1.0120000000e+05
    6.4987532096e-04    1.0120000000e+05
    6.5988342976e-04    1.0120000000e+05
    6.6997949034e-04    1.0120000000e+05
    6.7989208037e-04    1.0120000000e+05
    6.8989052670e-04    1.0120000000e+05
    6.9997605169e-04    1.0120000000e+05
    7.0987013169e-04    1.0120000000e+05
    7.1999023203e-04    1.0120000000e+05
    7.2991411434e-04    1.0120000000e+05
    7.3992280522e-04    1.0120000000e+05
    7.4987288099e-04    1.0120000000e+05
    7.5990788173e-04    1.0120000000e+05
    7.6988158980e-04    1.0120000000e+05
    7.7994016465e-04    1.0120000000e+05
    7.8993488569e-04    1.0120000000e+05
    7.9986319179e-04    1.0120000000e+05
    8.0987479305e-04    1.0120000000e+05
    8.1997079542e-04    1.0120000000e+05
    8.2999747247e-04    1.0120000000e+05
    8.3995208843e-04    1.0120000000e+05
    8.4998941747e-04    1.0120000000e+05
    8.5995165864e-04    1.0120000000e+05
    8.6999620544e-04    1.0120000000e+05
    8.7996269576e-04    1.0120000000e+05
    8.8984827744e-04    1.0120000000e+05
    8.9997786563e-04    1.0120000000e+05
    9.0986053692e-04    1.0120000000e+05
    9.1998936841e-04    1.0120000000e+05
    9.2986534582e-04    1.0120000000e+05
    9.3998952070e-04    1.0120000000e+05
    9.4985472970e-04    1.0120000000e+05
    9.5997023163e-04    1.0120000000e+05
    9.6999405650e-04    1.0120000000e+05
    9.7992294468e-04    1.0120000000e+05
    9.8993000574e-04    1.0120000000e+05
    9.9983869586e-04    1.0120000000e+05
    1.0098245693e-03    1.0120000000e+05
    1.0198885575e-03    1.0120000000e+05
    1.0298498673e-03    1.0120000000e+05
    1.0398883605e-03    1.0120000000e+05
    1.0498205665e-03    1.0120000000e+05
    1.0598290246e-03    1.0120000000e+05
    1.0699147824e-03    1.0120000000e+05
    1.0798897129e-03    1.0120000000e+05
    1.0899411282e-03    1.0120000000e+05
    1.0998781072e-03    1.0120000000e+05
    1.1098904070e-03    1.0120000000e+05
    1.1199790752e-03    1.0120000000e+05
    1.1299488833e-03    1.0120000000e+05
    1.1399937794e-03    1.0120000000e+05
    1.1499159737e-03    1.0120000000e+05
    1.1599122081e-03    1.0120000000e+05
    1.1699837632e-03    1.0120000000e+05
    1.1799279600e-03    1.0120000000e+05
    1.1899460806e-03    1.0120000000e+05
    1.1998325353e-03    1.0120000000e+05
    1.2097920990e-03    1.0120000000e+05
    1.2198255863e-03    1.0120000000e+05
    1.2299341615e-03    1.0120000000e+05
    1.2399054831e-03    1.0120000000e+05
    1.2499508448e-03    1.0120000000e+05
    1.2598547619e-03    1.0120000000e+05
    1.2698312057e-03    1.0120000000e+05
    1.2798814569e-03    1.0120000000e+05
    1.2897852575e-03    1.0120000000e+05
    1.2999840546e-03    1.0120000000e+05
    1.3098112540e-03    1.0120000000e+05
    1.3199356617e-03    1.0120000000e+05
    1.3299076818e-03    1.0120000000e+05
    1.3399525778e-03    1.0120000000e+05
    1.3498418266e-03    1.0120000000e+05
    1.3598017395e-03    1.0120000000e+05
    1.3698347611e-03    1.0120000000e+05
    1.3799429871e-03    1.0120000000e+05
    1.3898883481e-03    1.0120000000e+05
    1.3999057701e-03    1.0120000000e+05
    1.4099968830e-03    1.0120000000e+05
    1.4199203579e-03    1.0120000000e+05
    1.4299158938e-03    1.0120000000e+05
    1.4399833744e-03    1.0120000000e+05
    1.4498770470e-03    1.0120000000e+05
    1.4598433627e-03    1.0120000000e+05
    1.4698816231e-03    1.0120000000e+05
    1.4799941564e-03    1.0120000000e+05
    1.4899263624e-03    1.0120000000e+05
    1.4999307459e-03    1.0120000000e+05
    1.5097490977e-03    1.0120000000e+05
    1.5198995825e-03    1.0120000000e+05
    1.5298626386e-03    1.0120000000e+05
    1.5398986870e-03    1.0120000000e+05
    1.5497417189e-03    1.0120000000e+05
    1.5599247999e-03    1.0120000000e+05
    1.5699138166e-03    1.0120000000e+05
    1.5799760586e-03    1.0120000000e+05
    1.5898381826e-03    1.0120000000e+05
    1.5997717855e-03    1.0120000000e+05
    1.6097787302e-03    1.0120000000e+05
    1.6198597150e-03    1.0120000000e+05
    1.6297325492e-03    1.0120000000e+05
    1.6399630113e-03    1.0120000000e+05
    1.6499838093e-03    1.0120000000e+05
    1.6597898211e-03    1.0120000000e+05
    1.6699590487e-03    1.0120000000e+05
    1.6799113946e-03    1.0120000000e+05
    1.6899375478e-03    1.0120000000e+05
    1.6997409984e-03    1.0120000000e+05
    1.7099165125e-03    1.0120000000e+05
    1.7198672285e-03    1.0120000000e+05
    1.7298918683e-03    1.0120000000e+05
    1.7399925273e-03    1.0120000000e+05
    1.7498604720e-03    1.0120000000e+05
    1.7598017585e-03    1.0120000000e+05
    1.7698178999e-03    1.0120000000e+05
    1.7799100606e-03    1.0120000000e+05
    1.7897606594e-03    1.0120000000e+05
    1.7996851820e-03    1.0120000000e+05
    1.8096847925e-03    1.0120000000e+05
    1.8197606551e-03    1.0120000000e+05
    1.8299145158e-03    1.0120000000e+05
    1.8398162210e-03    1.0120000000e+05
    1.8497932469e-03    1.0120000000e+05
    1.8598472234e-03    1.0120000000e+05
    1.8699794309e-03    1.0120000000e+05
    1.8798493547e-03    1.0120000000e+05
    1.8897952978e-03    1.0120000000e+05
    1.8998184241e-03    1.0120000000e+05
    1.9099198980e-03    1.0120000000e+05
    1.9197490765e-03    1.0120000000e+05
    1.9296541577e-03    1.0120000000e+05
    1.9399945159e-03    1.0120000000e+05
    1.9496978493e-03    1.0120000000e+05
    1.9598396029e-03    1.0120000000e+05
    1.9696964882e-03    1.0120000000e+05
    1.9796311390e-03    1.0120000000e+05
    1.9896447193e-03    1.0120000000e+05
    1.9997388590e-03    1.0120000000e+05
    2.0099154208e-03    1.0120000000e+05
    2.0197941922e-03    1.0120000000e+05
    2.0297523588e-03    1.0120000000e+05
    2.0397913177e-03    1.0120000000e+05
    2.0499126986e-03    1.0120000000e+05
    2.0597241819e-03    1.0120000000e+05
    2.0696150605e-03    1.0120000000e+05
    2.0799874328e-03    1.0120000000e+05
    2.0896412898e-03    1.0120000000e+05
    2.0997803658e-03    1.0120000000e+05
    2.1095946431e-03    1.0120000000e+05
    2.1199041512e-03    1.0120000000e+05
    2.1298858337e-03    1.0120000000e+05
    2.1399520338e-03    1.0120000000e+05
    2.1496801637e-03    1.0120000000e+05
    2.1599174943e-03    1.0120000000e+05
    2.1698113997e-03    1.0120000000e+05
    2.1797725931e-03    1.0120000000e+05
    2.1897910628e-03    1.0120000000e+05
    2.1998581942e-03    1.0120000000e+05
    2.2099597845e-03    1.0120000000e+05
    2.2196592763e-03    1.0120000000e+05
    2.2298165131e-03    1.0120000000e+05
    2.2395544220e-03    1.0120000000e+05
    2.2497645114e-03    1.0120000000e+05
    2.2599494550e-03    1.0120000000e+05
    2.2697472014e-03    1.0120000000e+05
    2.2799412254e-03    1.0120000000e+05
    2.2897319868e-03    1.0120000000e+05
    2.2999374196e-03    1.0120000000e+05
    2.3096820805e-03    1.0120000000e+05
    2.3198879790e-03    1.0120000000e+05
    2.3296577856e-03    1.0120000000e+05
    2.3398508783e-03    1.0120000000e+05
    2.3496176582e-03    1.0120000000e+05
    2.3597958498e-03    1.0120000000e+05
    2.3699656595e-03    1.0120000000e+05
    2.3797142785e-03    1.0120000000e+05
    2.3899259977e-03    1.0120000000e+05
    2.3996247910e-03    1.0120000000e+05
    2.4097757414e-03    1.0120000000e+05
    2.4199825712e-03    1.0120000000e+05
    2.4297190830e-03    1.0120000000e+05
    2.4398628157e-03    1.0120000000e+05
    2.4495904800e-03    1.0120000000e+05
    2.4598201271e-03    1.0120000000e+05
    2.4695883039e-03    1.0120000000e+05
    2.4798312224e-03    1.0120000000e+05
    2.4896699470e-03    1.0120000000e+05
    2.4999654852e-03    1.0120000000e+05
    2.5098056067e-03    1.0120000000e+05
    2.5196615607e-03    1.0120000000e+05
    2.5295491796e-03    1.0120000000e+05
    2.5399194565e-03    1.0120000000e+05
    2.5498401374e-03    1.0120000000e+05
    2.5597717613e-03    1.0120000000e+05
    2.5697031524e-03    1.0120000000e+05
    2.5796284899e-03    1.0120000000e+05
    2.5899899192e-03    1.0120000000e+05
    2.5999131612e-03    1.0120000000e+05
    2.6098084636e-03    1.0120000000e+05
    2.6196693070e-03    1.0120000000e+05
    2.6299725287e-03    1.0120000000e+05
    2.6397793554e-03    1.0120000000e+05
    2.6495596394e-03    1.0120000000e+05
    2.6597334072e-03    1.0120000000e+05
    2.6698480360e-03    1.0120000000e+05
    2.6798907202e-03    1.0120000000e+05
    2.6898633223e-03    1.0120000000e+05
    2.6997663081e-03    1.0120000000e+05
    2.7096003760e-03    1.0120000000e+05
    2.7197902091e-03    1.0120000000e+05
    2.7299073990e-03    1.0120000000e+05
    2.7399531100e-03    1.0120000000e+05
    2.7499280404e-03    1.0120000000e+05
    2.7598335873e-03    1.0120000000e+05
    2.7696699835e-03    1.0120000000e+05
    2.7798444498e-03    1.0120000000e+05
    2.7899462730e-03    1.0120000000e+05
    2.7999761514e-03    1.0120000000e+05
    2.8099350166e-03    1.0120000000e+05
    2.8198237997e-03    1.0120000000e+05
    2.8296434321e-03    1.0120000000e+05
    2.8397834394e-03    1.0120000000e+05
    2.8498501051e-03    1.0120000000e+05
    2.8598443605e-03    1.0120000000e+05
    2.8697673697e-03    1.0120000000e+05
    2.8799967840e-03    1.0120000000e+05
    2.8897761367e-03    1.0120000000e+05
    2.8998584021e-03    1.0120000000e+05
    2.9098666273e-03    1.0120000000e+05
    2.9198017437e-03    1.0120000000e+05
    2.9296639841e-03    1.0120000000e+05
    2.9398158658e-03    1.0120000000e+05
    2.9498911463e-03    1.0120000000e+05
    2.9598905239e-03    1.0120000000e+05
    2.9698149301e-03    1.0120000000e+05
    2.9796645977e-03    1.0120000000e+05
    2.9897883069e-03    1.0120000000e+05
    2.9998330865e-03    1.0120000000e+05
    3.0098003335e-03    1.0120000000e+05
    3.0196893495e-03    1.0120000000e+05
    3.0298389029e-03    1.0120000000e+05
    3.0399067327e-03    1.0120000000e+05
    3.0498930719e-03    1.0120000000e+05
    3.0597986188e-03    1.0120000000e+05
    3.0699505005e-03    1.0120000000e+05
    3.0796935316e-03    1.0120000000e+05
    3.0899988487e-03    1.0120000000e+05
    3.0998964794e-03    1.0120000000e+05
    3.1097102910e-03    1.0120000000e+05
    3.1197529752e-03    1.0120000000e+05
    3.1297071837e-03    1.0120000000e+05
    3.1398800202e-03    1.0120000000e+05
    3.1499597244e-03    1.0120000000e+05
    3.1599458307e-03    1.0120000000e+05
    3.1698390376e-03    1.0120000000e+05
    3.1799350400e-03    1.0120000000e+05
    3.1899330206e-03    1.0120000000e+05
    3.1998325139e-03    1.0120000000e+05
    3.2099208329e-03    1.0120000000e+05
    3.2199053094e-03    1.0120000000e+05
    3.2297859434e-03    1.0120000000e+05
    3.2398402691e-03    1.0120000000e+05
    3.2497846987e-03    1.0120000000e+05
    3.2598902471e-03    1.0120000000e+05
    3.2698791474e-03    1.0120000000e+05
    3.2797507010e-03    1.0120000000e+05
    3.2897670753e-03    1.0120000000e+05
    3.2999170944e-03    1.0120000000e+05
    3.3099350985e-03    1.0120000000e+05
    3.3198206220e-03    1.0120000000e+05
    3.3298204653e-03    1.0120000000e+05
    3.3399229869e-03    1.0120000000e+05
    3.3498753328e-03    1.0120000000e+05
    3.3599126618e-03    1.0120000000e+05
    3.3697888721e-03    1.0120000000e+05
    3.3799596131e-03    1.0120000000e+05
    3.3899485134e-03    1.0120000000e+05
    3.3999725711e-03    1.0120000000e+05
    3.4097989555e-03    1.0120000000e+05
    3.4198469948e-03    1.0120000000e+05
    3.4298764076e-03    1.0120000000e+05
    3.4398657735e-03    1.0120000000e+05
    3.4499873873e-03    1.0120000000e+05
    3.4598179627e-03    1.0120000000e+05
    3.4698965028e-03    1.0120000000e+05
    3.4799720161e-03    1.0120000000e+05
    3.4899804741e-03    1.0120000000e+05
    3.4998448100e-03    1.0120000000e+05
    3.5099217203e-03    1.0120000000e+05
    3.5199832637e-03    1.0120000000e+05
    3.5299512092e-03    1.0120000000e+05
    3.5399412736e-03    1.0120000000e+05
    3.5499341320e-03    1.0120000000e+05
    3.5599386320e-03    1.0120000000e+05
    3.5699615255e-03    1.0120000000e+05
    3.5798593890e-03    1.0120000000e+05
    3.5899102222e-03    1.0120000000e+05
    3.5999522079e-03    1.0120000000e+05
    3.6098631099e-03    1.0120000000e+05
    3.6199220922e-03    1.0120000000e+05
    3.6299123894e-03    1.0120000000e+05
    3.6399203818e-03    1.0120000000e+05
    3.6498981062e-03    1.0120000000e+05
    3.6599938758e-03    1.0120000000e+05
    3.6699774209e-03    1.0120000000e+05
    3.6799602676e-03    1.0120000000e+05
    3.6898229737e-03    1.0120000000e+05
    3.6998109426e-03    1.0120000000e+05
    3.7098745815e-03    1.0120000000e+05
    3.7198639475e-03    1.0120000000e+05
    3.7299043033e-03    1.0120000000e+05
    3.7398568820e-03    1.0120000000e+05
    3.7498611491e-03    1.0120000000e+05
    3.7599548232e-03    1.0120000000e+05
    3.7699060049e-03    1.0120000000e+05
    3.7799349520e-03    1.0120000000e+05
    3.7898190785e-03    1.0120000000e+05
    3.7999618798e-03    1.0120000000e+05
    3.8099640515e-03    1.0120000000e+05
    3.8198039401e-03    1.0120000000e+05
    3.8299167063e-03    1.0120000000e+05
    3.8398520555e-03    1.0120000000e+05
    3.8498600479e-03    1.0120000000e+05
    3.8598913234e-03    1.0120000000e+05
    3.8699954748e-03    1.0120000000e+05
    3.8799266331e-03    1.0120000000e+05
    3.8898955099e-03    1.0120000000e+05
    3.8999093231e-03    1.0120000000e+05
    3.9099501446e-03    1.0120000000e+05
    3.9198542945e-03    1.0120000000e+05
    3.9299759082e-03    1.0120000000e+05
    3.9399489760e-03    1.0120000000e+05
    3.9499299601e-03    1.0120000000e+05
    3.9599714801e-03    1.0120000000e+05
    3.9698341861e-03    1.0120000000e+05
    3.9799148217e-03    1.0120000000e+05
    3.9898687974e-03    1.0120000000e+05
    3.9998013526e-03    1.0120000000e+05
    4.0098004974e-03    1.0120000000e+05
    4.0198294446e-03    1.0120000000e+05
    4.0298583917e-03    1.0120000000e+05
    4.0399767458e-03    1.0120000000e+05
    4.0498389862e-03    1.0120000000e+05
    4.0597859770e-03    1.0120000000e+05
    4.0699634701e-03    1.0120000000e+05
    4.0799179114e-03    1.0120000000e+05
    4.0899734013e-03    1.0120000000e+05
    4.0999762714e-03    1.0120000000e+05
    4.1098329239e-03    1.0120000000e+05
    4.1199331172e-03    1.0120000000e+05
    4.1297990829e-03    1.0120000000e+05
    4.1399751790e-03    1.0120000000e+05
    4.1498993523e-03    1.0120000000e+05
    4.1598915122e-03    1.0120000000e+05
    4.1699041612e-03    1.0120000000e+05
    4.1799223982e-03    1.0120000000e+05
    4.1897669435e-03    1.0120000000e+05
    4.1998522356e-03    1.0120000000e+05
    4.2099561542e-03    1.0120000000e+05
    4.2198677547e-03    1.0120000000e+05
    4.2297909968e-03    1.0120000000e+05
    4.2399722151e-03    1.0120000000e+05
    4.2499490082e-03    1.0120000000e+05
    4.2599486187e-03    1.0120000000e+05
    4.2699626647e-03    1.0120000000e+05
    4.2799948715e-03    1.0120000000e+05
    4.2898147367e-03    1.0120000000e+05
    4.2998883873e-03    1.0120000000e+05
    4.3099718168e-03    1.0120000000e+05
    4.3198401108e-03    1.0120000000e+05
    4.3299640529e-03    1.0120000000e+05
    4.3398556300e-03    1.0120000000e+05
    4.3497602455e-03    1.0120000000e+05
    4.3599242344e-03    1.0120000000e+05
    4.3698507361e-03    1.0120000000e+05
    4.3797879480e-03    1.0120000000e+05
    4.3899780139e-03    1.0120000000e+05
    4.3999333866e-03    1.0120000000e+05
    4.4098924845e-03    1.0120000000e+05
    4.4198571704e-03    1.0120000000e+05
    4.4298241846e-03    1.0120000000e+05
    4.4397921301e-03    1.0120000000e+05
    4.4497605413e-03    1.0120000000e+05
    4.4599720277e-03    1.0120000000e+05
    4.4699404389e-03    1.0120000000e+05
    4.4799088500e-03    1.0120000000e+05
    4.4898772612e-03    1.0120000000e+05
    4.4998452067e-03    1.0120000000e+05
    4.5098131523e-03    1.0120000000e+05
    4.5197806321e-03    1.0120000000e+05
    4.5299907215e-03    1.0120000000e+05
    4.5399572700e-03    1.0120000000e+05
    4.5499233529e-03    1.0120000000e+05
    4.5598885044e-03    1.0120000000e+05
    4.5698531903e-03    1.0120000000e+05
    4.5798169449e-03    1.0120000000e+05
    4.5897793025e-03    1.0120000000e+05
    4.5999833383e-03    1.0120000000e+05
    4.6099438332e-03    1.0120000000e+05
    4.6199024655e-03    1.0120000000e+05
    4.6298592351e-03    1.0120000000e+05
    4.6398187988e-03    1.0120000000e+05
    4.6497783624e-03    1.0120000000e+05
    4.6599823982e-03    1.0120000000e+05
    4.6699512750e-03    1.0120000000e+05
    4.6799289994e-03    1.0120000000e+05
    4.6899081208e-03    1.0120000000e+05
    4.6998956241e-03    1.0120000000e+05
    4.7098943032e-03    1.0120000000e+05
    4.7199008986e-03    1.0120000000e+05
    4.7299098223e-03    1.0120000000e+05
    4.7399331816e-03    1.0120000000e+05
    4.7499667853e-03    1.0120000000e+05
    4.7597568482e-03    1.0120000000e+05
    4.7697997652e-03    1.0120000000e+05
    4.7798599117e-03    1.0120000000e+05
    4.7899242491e-03    1.0120000000e+05
    4.7999895178e-03    1.0120000000e+05
    4.8098242842e-03    1.0120000000e+05
    4.8199151643e-03    1.0120000000e+05
    4.8297615722e-03    1.0120000000e+05
    4.8398599029e-03    1.0120000000e+05
    4.8499787226e-03    1.0120000000e+05
    4.8598484136e-03    1.0120000000e+05
    4.8699709587e-03    1.0120000000e+05
    4.8798555508e-03    1.0120000000e+05
    4.8897587694e-03    1.0120000000e+05
    4.8998971470e-03    1.0120000000e+05
    4.9098026939e-03    1.0120000000e+05
    4.9199708737e-03    1.0120000000e+05
    4.9298978411e-03    1.0120000000e+05
    4.9398103729e-03    1.0120000000e+05
    4.9497517757e-03    1.0120000000e+05
    4.9599520862e-03    1.0120000000e+05
    4.9698981456e-03    1.0120000000e+05
    4.9798400141e-03    1.0120000000e+05
    4.9898130819e-03    1.0120000000e+05
    4.9997870810e-03    1.0120000000e+05
    5.0099994987e-03    1.0120000000e+05
    5.0199702382e-03    1.0120000000e+05
    5.0299656577e-03    1.0120000000e+05
    5.0399615429e-03    1.0120000000e+05
    5.0499583595e-03    1.0120000000e+05
    5.0599607639e-03    1.0120000000e+05
    5.0699748099e-03    1.0120000000e+05
    5.0799911842e-03    1.0120000000e+05
    5.0897691399e-03    1.0120000000e+05
    5.0998008810e-03    1.0120000000e+05
    5.1098312251e-03    1.0120000000e+05
    5.1198690198e-03    1.0120000000e+05
    5.1299314946e-03    1.0120000000e+05
    5.1399930380e-03    1.0120000000e+05
    5.1497914828e-03    1.0120000000e+05
    5.1598553546e-03    1.0120000000e+05
    5.1699406467e-03    1.0120000000e+05
    5.1797749475e-03    1.0120000000e+05
    5.1898467354e-03    1.0120000000e+05
    5.1999320276e-03    1.0120000000e+05
    5.2097821608e-03    1.0120000000e+05
    5.2198939957e-03    1.0120000000e+05
    5.2299955860e-03    1.0120000000e+05
    5.2398494445e-03    1.0120000000e+05
    5.2499724552e-03    1.0120000000e+05
    5.2598523907e-03    1.0120000000e+05
    5.2699842490e-03    1.0120000000e+05
    5.2798604593e-03    1.0120000000e+05
    5.2899988368e-03    1.0120000000e+05
    5.2998997271e-03    1.0120000000e+05
    5.3098015487e-03    1.0120000000e+05
    5.3199585527e-03    1.0120000000e+05
    5.3298599087e-03    1.0120000000e+05
    5.3397770971e-03    1.0120000000e+05
    5.3499550559e-03    1.0120000000e+05
    5.3598810919e-03    1.0120000000e+05
    5.3698038682e-03    1.0120000000e+05
    5.3799892776e-03    1.0120000000e+05
    5.3899320774e-03    1.0120000000e+05
    5.3998762742e-03    1.0120000000e+05
    5.4098186083e-03    1.0120000000e+05
    5.4197679274e-03    1.0120000000e+05
    5.4299812764e-03    1.0120000000e+05
    5.4399482906e-03    1.0120000000e+05
    5.4499050602e-03    1.0120000000e+05
    5.4598660208e-03    1.0120000000e+05
    5.4698390886e-03    1.0120000000e+05
    5.4798303172e-03    1.0120000000e+05
    5.4898257367e-03    1.0120000000e+05
    5.4998188280e-03    1.0120000000e+05
    5.5098044686e-03    1.0120000000e+05
    5.5197877809e-03    1.0120000000e+05
    5.5297859944e-03    1.0120000000e+05
    5.5397925898e-03    1.0120000000e+05
    5.5498024449e-03    1.0120000000e+05
    5.5598090403e-03    1.0120000000e+05
    5.5698133074e-03    1.0120000000e+05
    5.5798161775e-03    1.0120000000e+05
    5.5898181163e-03    1.0120000000e+05
    5.5998186581e-03    1.0120000000e+05
    5.6098275818e-03    1.0120000000e+05
    5.6198444217e-03    1.0120000000e+05
    5.6298603304e-03    1.0120000000e+05
    5.6398743764e-03    1.0120000000e+05
    5.6498870254e-03    1.0120000000e+05
    5.6598982774e-03    1.0120000000e+05
    5.6699099950e-03    1.0120000000e+05
    5.6799207814e-03    1.0120000000e+05
    5.6899324991e-03    1.0120000000e+05
    5.6999446824e-03    1.0120000000e+05
    5.7099559344e-03    1.0120000000e+05
    5.7199667208e-03    1.0120000000e+05
    5.7299775071e-03    1.0120000000e+05
    5.7399882935e-03    1.0120000000e+05
    5.7499995455e-03    1.0120000000e+05
    5.7597542182e-03    1.0120000000e+05
    5.7697650045e-03    1.0120000000e+05
    5.7797757909e-03    1.0120000000e+05
    5.7897861116e-03    1.0120000000e+05
    5.7997959666e-03    1.0120000000e+05
    5.8098053560e-03    1.0120000000e+05
    5.8198147453e-03    1.0120000000e+05
    5.8298232034e-03    1.0120000000e+05
    5.8398316614e-03    1.0120000000e+05
    5.8498391882e-03    1.0120000000e+05
    5.8598467149e-03    1.0120000000e+05
    5.8698537759e-03    1.0120000000e+05
    5.8798599057e-03    1.0120000000e+05
    5.8898665011e-03    1.0120000000e+05
    5.8998721652e-03    1.0120000000e+05
    5.9098787606e-03    1.0120000000e+05
    5.9198853560e-03    1.0120000000e+05
    5.9298914857e-03    1.0120000000e+05
    5.9399004094e-03    1.0120000000e+05
    5.9499130584e-03    1.0120000000e+05
    5.9599285014e-03    1.0120000000e+05
    5.9699458070e-03    1.0120000000e+05
    5.9799621813e-03    1.0120000000e+05
    5.9899766929e-03    1.0120000000e+05
    5.9999907389e-03    1.0120000000e+05
    6.0097468086e-03    1.0120000000e+05
    6.0197589919e-03    1.0120000000e+05
    6.0297721066e-03    1.0120000000e+05
    6.0397903435e-03    1.0120000000e+05
    6.0498109087e-03    1.0120000000e+05
    6.0598300770e-03    1.0120000000e+05
    6.0698483139e-03    1.0120000000e+05
    6.0798660852e-03    1.0120000000e+05
    6.0898833908e-03    1.0120000000e+05
    6.0999006964e-03    1.0120000000e+05
    6.1099212617e-03    1.0120000000e+05
    6.1199432239e-03    1.0120000000e+05
    6.1299647205e-03    1.0120000000e+05
    6.1399843544e-03    1.0120000000e+05
    6.1497469433e-03    1.0120000000e+05
    6.1597651802e-03    1.0120000000e+05
    6.1697885394e-03    1.0120000000e+05
    6.1798142269e-03    1.0120000000e+05
    6.1898380518e-03    1.0120000000e+05
    6.1998614110e-03    1.0120000000e+05
    6.2098838389e-03    1.0120000000e+05
    6.2199085951e-03    1.0120000000e+05
    6.2299366109e-03    1.0120000000e+05
    6.2399641611e-03    1.0120000000e+05
    6.2499903142e-03    1.0120000000e+05
    6.2597589567e-03    1.0120000000e+05
    6.2697860412e-03    1.0120000000e+05
    6.2798173167e-03    1.0120000000e+05
    6.2898471951e-03    1.0120000000e+05
    6.2998761423e-03    1.0120000000e+05
    6.3099046238e-03    1.0120000000e+05
    6.3199358992e-03    1.0120000000e+05
    6.3299681060e-03    1.0120000000e+05
    6.3399993815e-03    1.0120000000e+05
    6.3497726806e-03    1.0120000000e+05
    6.3598048873e-03    1.0120000000e+05
    6.3698380254e-03    1.0120000000e+05
    6.3798702322e-03    1.0120000000e+05
    6.3899024390e-03    1.0120000000e+05
    6.3999346457e-03    1.0120000000e+05
    6.4099687152e-03    1.0120000000e+05
    6.4197443426e-03    1.0120000000e+05
    6.4297774807e-03    1.0120000000e+05
    6.4398106188e-03    1.0120000000e+05
    6.4498442225e-03    1.0120000000e+05
    6.4598778263e-03    1.0120000000e+05
    6.4699109644e-03    1.0120000000e+05
    6.4799441025e-03    1.0120000000e+05
    6.4899777062e-03    1.0120000000e+05
    6.4997537993e-03    1.0120000000e+05
    6.5097864717e-03    1.0120000000e+05
    6.5198196098e-03    1.0120000000e+05
    6.5298522823e-03    1.0120000000e+05
    6.5398849547e-03    1.0120000000e+05
    6.5499171615e-03    1.0120000000e+05
    6.5599493682e-03    1.0120000000e+05
    6.5699811094e-03    1.0120000000e+05
    6.5797553398e-03    1.0120000000e+05
    6.5897870809e-03    1.0120000000e+05
    6.5998188220e-03    1.0120000000e+05
    6.6098500974e-03    1.0120000000e+05
    6.6198813729e-03    1.0120000000e+05
    6.6299117170e-03    1.0120000000e+05
    6.6399415955e-03    1.0120000000e+05
    6.6499710083e-03    1.0120000000e+05
    6.6597447731e-03    1.0120000000e+05
    6.6697774455e-03    1.0120000000e+05
    6.6798119806e-03    1.0120000000e+05
    6.6898460500e-03    1.0120000000e+05
    6.6998796538e-03    1.0120000000e+05
    6.7099123262e-03    1.0120000000e+05
    6.7199449986e-03    1.0120000000e+05
    6.7299772054e-03    1.0120000000e+05
    6.7397519015e-03    1.0120000000e+05
    6.7497841083e-03    1.0120000000e+05
    6.7598153837e-03    1.0120000000e+05
    6.7698471248e-03    1.0120000000e+05
    6.7798779346e-03    1.0120000000e+05
    6.7899092101e-03    1.0120000000e+05
    6.7999404855e-03    1.0120000000e+05
    6.8099726923e-03    1.0120000000e+05
    6.8197483197e-03    1.0120000000e+05
    6.8297814578e-03    1.0120000000e+05
    6.8398155272e-03    1.0120000000e+05
    6.8498533219e-03    1.0120000000e+05
    6.8598948419e-03    1.0120000000e+05
    6.8699358962e-03    1.0120000000e+05
    6.8799755536e-03    1.0120000000e+05
    6.8897618912e-03    1.0120000000e+05
    6.8998159841e-03    1.0120000000e+05
    6.9098742679e-03    1.0120000000e+05
    6.9199325517e-03    1.0120000000e+05
    6.9299913011e-03    1.0120000000e+05
    6.9398102351e-03    1.0120000000e+05
    6.9498987868e-03    1.0120000000e+05
    6.9599905983e-03    1.0120000000e+05
    6.9698230363e-03    1.0120000000e+05
    6.9799125195e-03    1.0120000000e+05
    6.9897430949e-03    1.0120000000e+05
    6.9998418912e-03    1.0120000000e+05
    7.0099467412e-03    1.0120000000e+05
    7.0197945461e-03    1.0120000000e+05
    7.0299031213e-03    1.0120000000e+05
    7.0397532545e-03    1.0120000000e+05
    7.0498674177e-03    1.0120000000e+05
    7.0599820465e-03    1.0120000000e+05
    7.0698386990e-03    1.0120000000e+05
    7.0799603127e-03    1.0120000000e+05
    7.0898286067e-03    1.0120000000e+05
    7.0999651216e-03    1.0120000000e+05
    7.1098408662e-03    1.0120000000e+05
    7.1199811064e-03    1.0120000000e+05
    7.1298722178e-03    1.0120000000e+05
    7.1397731081e-03    1.0120000000e+05
    7.1499403566e-03    1.0120000000e+05
    7.1598435752e-03    1.0120000000e+05
    7.1697561070e-03    1.0120000000e+05
    7.1799438447e-03    1.0120000000e+05
    7.1898777969e-03    1.0120000000e+05
    7.1998173371e-03    1.0120000000e+05
    7.2097531520e-03    1.0120000000e+05
    7.2199520655e-03    1.0120000000e+05
    7.2299106978e-03    1.0120000000e+05
    7.2398791090e-03    1.0120000000e+05
    7.2498470545e-03    1.0120000000e+05
    7.2598136030e-03    1.0120000000e+05
    7.2697838768e-03    1.0120000000e+05
    7.2797653265e-03    1.0120000000e+05
    7.2897630744e-03    1.0120000000e+05
    7.2997654788e-03    1.0120000000e+05
    7.3097604327e-03    1.0120000000e+05
    7.3197633028e-03    1.0120000000e+05
    7.3297787458e-03    1.0120000000e+05
    7.3398007080e-03    1.0120000000e+05
    7.3498301208e-03    1.0120000000e+05
    7.3598637246e-03    1.0120000000e+05
    7.3698917404e-03    1.0120000000e+05
    7.3799327947e-03    1.0120000000e+05
    7.3899864219e-03    1.0120000000e+05
    7.3997774161e-03    1.0120000000e+05
    7.4098412879e-03    1.0120000000e+05
    7.4199084193e-03    1.0120000000e+05
    7.4299718253e-03    1.0120000000e+05
    7.4397781864e-03    1.0120000000e+05
    7.4498653412e-03    1.0120000000e+05
    7.4599571526e-03    1.0120000000e+05
    7.4697895907e-03    1.0120000000e+05
    7.4798888527e-03    1.0120000000e+05
    7.4899843894e-03    1.0120000000e+05
    7.4998219498e-03    1.0120000000e+05
    7.5099412352e-03    1.0120000000e+05
    7.5197974220e-03    1.0120000000e+05
    7.5299250893e-03    1.0120000000e+05
    7.5397854671e-03    1.0120000000e+05
    7.5499089435e-03    1.0120000000e+05
    7.5597772375e-03    1.0120000000e+05
    7.5699300505e-03    1.0120000000e+05
    7.5798160397e-03    1.0120000000e+05
    7.5899707153e-03    1.0120000000e+05
    7.5998636894e-03    1.0120000000e+05
    7.6097492129e-03    1.0120000000e+05
    7.6199159957e-03    1.0120000000e+05
    7.6298322529e-03    1.0120000000e+05
    7.6397438534e-03    1.0120000000e+05
    7.6499260031e-03    1.0120000000e+05
    7.6598497108e-03    1.0120000000e+05
    7.6697738841e-03    1.0120000000e+05
    7.6799686067e-03    1.0120000000e+05
    7.6899132691e-03    1.0120000000e+05
    7.6998532750e-03    1.0120000000e+05
    7.7097928151e-03    1.0120000000e+05
    7.7197439969e-03    1.0120000000e+05
    7.7299671248e-03    1.0120000000e+05
    7.7399229631e-03    1.0120000000e+05
    7.7498918399e-03    1.0120000000e+05
    7.7598560601e-03    1.0120000000e+05
    7.7698207460e-03    1.0120000000e+05
    7.7798031271e-03    1.0120000000e+05
    7.7897878364e-03    1.0120000000e+05
    7.7997734770e-03    1.0120000000e+05
    7.8097684309e-03    1.0120000000e+05
    7.8197615221e-03    1.0120000000e+05
    7.8297471628e-03    1.0120000000e+05
    7.8397523612e-03    1.0120000000e+05
    7.8497678041e-03    1.0120000000e+05
    7.8597804531e-03    1.0120000000e+05
    7.8698033467e-03    1.0120000000e+05
    7.8798262402e-03    1.0120000000e+05
    7.8898360953e-03    1.0120000000e+05
    7.8998589888e-03    1.0120000000e+05
    7.9099014401e-03    1.0120000000e+05
    7.9199383035e-03    1.0120000000e+05
    7.9299826175e-03    1.0120000000e+05
    7.9397577792e-03    1.0120000000e+05
    7.9498002306e-03    1.0120000000e+05
    7.9598464072e-03    1.0120000000e+05
    7.9699093476e-03    1.0120000000e+05
    7.9799722880e-03    1.0120000000e+05
    7.9897670075e-03    1.0120000000e+05
    7.9998401925e-03    1.0120000000e+05
    8.0099068582e-03    1.0120000000e+05
    8.0199828371e-03    1.0120000000e+05
    8.0297989771e-03    1.0120000000e+05
    8.0398879945e-03    1.0120000000e+05
    8.0499723554e-03    1.0120000000e+05
    8.0597940832e-03    1.0120000000e+05
    8.0698840320e-03    1.0120000000e+05
    8.0799777061e-03    1.0120000000e+05
    8.0898124725e-03    1.0120000000e+05
    8.0999257043e-03    1.0120000000e+05
    8.1097651273e-03    1.0120000000e+05
    8.1198830158e-03    1.0120000000e+05
    8.1297280267e-03    1.0120000000e+05
    8.1398431212e-03    1.0120000000e+05
    8.1499721855e-03    1.0120000000e+05
    8.1598358229e-03    1.0120000000e+05
    8.1699714065e-03    1.0120000000e+05
    8.1798387691e-03    1.0120000000e+05
    8.1899845973e-03    1.0120000000e+05
    8.1998500973e-03    1.0120000000e+05
    8.2099931315e-03    1.0120000000e+05
    8.2198726013e-03    1.0120000000e+05
    8.2297548652e-03    1.0120000000e+05
    8.2399202511e-03    1.0120000000e+05
    8.2498164847e-03    1.0120000000e+05
    8.2599828020e-03    1.0120000000e+05
    8.2698753104e-03    1.0120000000e+05
    8.2797771320e-03    1.0120000000e+05
    8.2899546251e-03    1.0120000000e+05
    8.2998601720e-03    1.0120000000e+05
    8.3097759634e-03    1.0120000000e+05
    8.3199702203e-03    1.0120000000e+05
    8.3298878744e-03    1.0120000000e+05
    8.3398092538e-03    1.0120000000e+05
    8.3497324958e-03    1.0120000000e+05
    8.3599351346e-03    1.0120000000e+05
    8.3698714152e-03    1.0120000000e+05
    8.3798114210e-03    1.0120000000e+05
    8.3897495642e-03    1.0120000000e+05
    8.3999708295e-03    1.0120000000e+05
    8.4099192172e-03    1.0120000000e+05
    8.4198676050e-03    1.0120000000e+05
    8.4298187867e-03    1.0120000000e+05
    8.4397783503e-03    1.0120000000e+05
    8.4497407079e-03    1.0120000000e+05
    8.4599824622e-03    1.0120000000e+05
    8.4699494764e-03    1.0120000000e+05
    8.4799183533e-03    1.0120000000e+05
    8.4898937494e-03    1.0120000000e+05
    8.4998747334e-03    1.0120000000e+05
    8.5098566487e-03    1.0120000000e+05
    8.5198413581e-03    1.0120000000e+05
    8.5298325866e-03    1.0120000000e+05
    8.5398275405e-03    1.0120000000e+05
    8.5498234257e-03    1.0120000000e+05
    8.5598230362e-03    1.0120000000e+05
    8.5698273033e-03    1.0120000000e+05
    8.5798352957e-03    1.0120000000e+05
    8.5898460820e-03    1.0120000000e+05
    8.5998587310e-03    1.0120000000e+05
    8.6098769680e-03    1.0120000000e+05
    8.6198989302e-03    1.0120000000e+05
    8.6299246177e-03    1.0120000000e+05
    8.6399512365e-03    1.0120000000e+05
    8.6499825120e-03    1.0120000000e+05
    8.6597418413e-03    1.0120000000e+05
    8.6697824299e-03    1.0120000000e+05
    8.6798248813e-03    1.0120000000e+05
    8.6898710579e-03    1.0120000000e+05
    8.6999228224e-03    1.0120000000e+05
    8.7099783123e-03    1.0120000000e+05
    8.7197553366e-03    1.0120000000e+05
    8.7298154831e-03    1.0120000000e+05
    8.7398812175e-03    1.0120000000e+05
    8.7499525398e-03    1.0120000000e+05
    8.7597472593e-03    1.0120000000e+05
    8.7698232383e-03    1.0120000000e+05
    8.7799048051e-03    1.0120000000e+05
    8.7899900973e-03    1.0120000000e+05
    8.7997969240e-03    1.0120000000e+05
    8.8098868728e-03    1.0120000000e+05
    8.8199824095e-03    1.0120000000e+05
    8.8298032060e-03    1.0120000000e+05
    8.8399080560e-03    1.0120000000e+05
    8.8497353718e-03    1.0120000000e+05
    8.8598458096e-03    1.0120000000e+05
    8.8699618354e-03    1.0120000000e+05
    8.8798012584e-03    1.0120000000e+05
    8.8899219409e-03    1.0120000000e+05
    8.8997660205e-03    1.0120000000e+05
    8.9098988101e-03    1.0120000000e+05
    8.9197540656e-03    1.0120000000e+05
    8.9298933744e-03    1.0120000000e+05
    8.9397542179e-03    1.0120000000e+05
    8.9499019086e-03    1.0120000000e+05
    8.9597729966e-03    1.0120000000e+05
    8.9699290693e-03    1.0120000000e+05
    8.9798048139e-03    1.0120000000e+05
    8.9899683371e-03    1.0120000000e+05
    8.9998561889e-03    1.0120000000e+05
    9.0097459033e-03    1.0120000000e+05
    9.0199196711e-03    1.0120000000e+05
    9.0298149735e-03    1.0120000000e+05
    9.0399989858e-03    1.0120000000e+05
    9.0499073267e-03    1.0120000000e+05
    9.0598212555e-03    1.0120000000e+05
    9.0697426349e-03    1.0120000000e+05
    9.0799527243e-03    1.0120000000e+05
    9.0898824856e-03    1.0120000000e+05
    9.0998075902e-03    1.0120000000e+05
    9.1097336262e-03    1.0120000000e+05
    9.1199455783e-03    1.0120000000e+05
    9.1298781335e-03    1.0120000000e+05
    9.1398162767e-03    1.0120000000e+05
    9.1497618705e-03    1.0120000000e+05
    9.1599971056e-03    1.0120000000e+05
    9.1699482873e-03    1.0120000000e+05
    9.1798985377e-03    1.0120000000e+05
    9.1898450628e-03    1.0120000000e+05
    9.1997953132e-03    1.0120000000e+05
    9.2097604647e-03    1.0120000000e+05
    9.2197330669e-03    1.0120000000e+05
    9.2299915850e-03    1.0120000000e+05
    9.2399660498e-03    1.0120000000e+05
    9.2499414459e-03    1.0120000000e+05
    9.2599196360e-03    1.0120000000e+05
    9.2698922381e-03    1.0120000000e+05
    9.2798685655e-03    1.0120000000e+05
    9.2898579314e-03    1.0120000000e+05
    9.2998603359e-03    1.0120000000e+05
    9.3098608777e-03    1.0120000000e+05
    9.3198670074e-03    1.0120000000e+05
    9.3298796564e-03    1.0120000000e+05
    9.3398997560e-03    1.0120000000e+05
    9.3499263749e-03    1.0120000000e+05
    9.3599595129e-03    1.0120000000e+05
    9.3699945137e-03    1.0120000000e+05
    9.3797445297e-03    1.0120000000e+05
    9.3897804618e-03    1.0120000000e+05
    9.3998117372e-03    1.0120000000e+05
    9.4098392874e-03    1.0120000000e+05
    9.4198742881e-03    1.0120000000e+05
    9.4299158081e-03    1.0120000000e+05
    9.4399638474e-03    1.0120000000e+05
    9.4497278333e-03    1.0120000000e+05
    9.4597777352e-03    1.0120000000e+05
    9.4698276371e-03    1.0120000000e+05
    9.4798747450e-03    1.0120000000e+05
    9.4899190590e-03    1.0120000000e+05
    9.4999643043e-03    1.0120000000e+05
    9.5097282901e-03    1.0120000000e+05
    9.5197819173e-03    1.0120000000e+05
    9.5298364758e-03    1.0120000000e+05
    9.5398901030e-03    1.0120000000e+05
    9.5499437302e-03    1.0120000000e+05
    9.5599973574e-03    1.0120000000e+05
    9.5697632059e-03    1.0120000000e+05
    9.5798196271e-03    1.0120000000e+05
    9.5898834988e-03    1.0120000000e+05
    9.5999492332e-03    1.0120000000e+05
    9.6097243950e-03    1.0120000000e+05
    9.6197854728e-03    1.0120000000e+05
    9.6298512071e-03    1.0120000000e+05
    9.6399225295e-03    1.0120000000e+05
    9.6497135237e-03    1.0120000000e+05
    9.6597960219e-03    1.0120000000e+05
    9.6698831767e-03    1.0120000000e+05
    9.6799694002e-03    1.0120000000e+05
    9.6897678450e-03    1.0120000000e+05
    9.6998475492e-03    1.0120000000e+05
    9.7099319100e-03    1.0120000000e+05
    9.7197415307e-03    1.0120000000e+05
    9.7298482433e-03    1.0120000000e+05
    9.7399586812e-03    1.0120000000e+05
    9.7497822717e-03    1.0120000000e+05
    9.7598964348e-03    1.0120000000e+05
    9.7697200254e-03    1.0120000000e+05
    9.7798304632e-03    1.0120000000e+05
    9.7899399698e-03    1.0120000000e+05
    9.7997589037e-03    1.0120000000e+05
    9.8098656163e-03    1.0120000000e+05
    9.8199723288e-03    1.0120000000e+05
    9.8297894001e-03    1.0120000000e+05
    9.8398970440e-03    1.0120000000e+05
    9.8497169092e-03    1.0120000000e+05
    9.8598264158e-03    1.0120000000e+05
    9.8699368536e-03    1.0120000000e+05
    9.8797576502e-03    1.0120000000e+05
    9.8898652941e-03    1.0120000000e+05
    9.8999729380e-03    1.0120000000e+05
    9.9097909406e-03    1.0120000000e+05
    9.9198967218e-03    1.0120000000e+05
    9.9297128618e-03    1.0120000000e+05
    9.9398167804e-03    1.0120000000e+05
    9.9499216303e-03    1.0120000000e+05
    9.9597368389e-03    1.0120000000e+05
    9.9698398262e-03    1.0120000000e+05
    9.9799418822e-03    1.0120000000e+05
    9.9897552282e-03    1.0120000000e+05
    9.9998563528e-03    1.0120000000e+05
    1.0009956546e-02    1.0120000000e+05
    1.0019768029e-02    1.0120000000e+05
    1.0029867291e-02    1.0120000000e+05
    1.0039966553e-02    1.0120000000e+05
    1.0049776174e-02    1.0120000000e+05
    1.0059873573e-02    1.0120000000e+05
    1.0069970973e-02    1.0120000000e+05
    1.0079778731e-02    1.0120000000e+05
    1.0089875199e-02    1.0120000000e+05
    1.0099970736e-02    1.0120000000e+05
    1.0109778494e-02    1.0120000000e+05
    1.0119872168e-02    1.0120000000e+05
    1.0129967704e-02    1.0120000000e+05
    1.0139773600e-02    1.0120000000e+05
    1.0149870999e-02    1.0120000000e+05
    1.0159969330e-02    1.0120000000e+05
    1.0169778951e-02    1.0120000000e+05
    1.0179879144e-02    1.0120000000e+05
    1.0189977475e-02    1.0120000000e+05
    1.0199786164e-02    1.0120000000e+05
    1.0209889151e-02    1.0120000000e+05
    1.0219995864e-02    1.0120000000e+05
    1.0229816660e-02    1.0120000000e+05
    1.0239935480e-02    1.0120000000e+05
    1.0249767452e-02    1.0120000000e+05
    1.0259886272e-02    1.0120000000e+05
    1.0269720107e-02    1.0120000000e+05
    1.0279853828e-02    1.0120000000e+05
    1.0289993137e-02    1.0120000000e+05
    1.0299860500e-02    1.0120000000e+05
    1.0309732519e-02    1.0120000000e+05
    1.0319910944e-02    1.0120000000e+05
    1.0329836048e-02    1.0120000000e+05
    1.0339801200e-02    1.0120000000e+05
    1.0349803604e-02    1.0120000000e+05
    1.0359830223e-02    1.0120000000e+05
    1.0369870812e-02    1.0120000000e+05
    1.0379934683e-02    1.0120000000e+05
    1.0389711708e-02    1.0120000000e+05
    1.0399789549e-02    1.0120000000e+05
    1.0409865528e-02    1.0120000000e+05
    1.0419945233e-02    1.0120000000e+05
    1.0429752991e-02    1.0120000000e+05
    1.0439889506e-02    1.0120000000e+05
    1.0449755937e-02    1.0120000000e+05
    1.0459945537e-02    1.0120000000e+05
    1.0469852947e-02    1.0120000000e+05
    1.0479773395e-02    1.0120000000e+05
    1.0489996523e-02    1.0120000000e+05
    1.0499923490e-02    1.0120000000e+05
    1.0509856977e-02    1.0120000000e+05
    1.0519818403e-02    1.0120000000e+05
    1.0529845022e-02    1.0120000000e+05
    1.0539989918e-02    1.0120000000e+05
    1.0549986735e-02    1.0120000000e+05
    1.0559855029e-02    1.0120000000e+05
    1.0569926351e-02    1.0120000000e+05
    1.0579876602e-02    1.0120000000e+05
    1.0589686222e-02    1.0120000000e+05
    1.0599685833e-02    1.0120000000e+05
    1.0609871708e-02    1.0120000000e+05
    1.0619881563e-02    1.0120000000e+05
    1.0629694909e-02    1.0120000000e+05
    1.0639662854e-02    1.0120000000e+05
    1.0649785399e-02    1.0120000000e+05
    1.0659676977e-02    1.0120000000e+05
    1.0669708252e-02    1.0120000000e+05
    1.0679878294e-02    1.0120000000e+05
    1.0689788498e-02    1.0120000000e+05
    1.0699824430e-02    1.0120000000e+05
    1.0709987953e-02    1.0120000000e+05
    1.0719863698e-02    1.0120000000e+05
    1.0729855858e-02    1.0120000000e+05
    1.0739965364e-02    1.0120000000e+05
    1.0749760084e-02    1.0120000000e+05
    1.0759653524e-02    1.0120000000e+05
    1.0769644752e-02    1.0120000000e+05
    1.0779723525e-02    1.0120000000e+05
    1.0789888911e-02    1.0120000000e+05
    1.0799692012e-02    1.0120000000e+05
    1.0809572414e-02    1.0120000000e+05
    1.0819975287e-02    1.0120000000e+05
    1.0829987936e-02    1.0120000000e+05
    1.0839588940e-02    1.0120000000e+05
    1.0849702172e-02    1.0120000000e+05
    1.0859851725e-02    1.0120000000e+05
    1.0869582184e-02    1.0120000000e+05
    1.0879828595e-02    1.0120000000e+05
    1.0889652185e-02    1.0120000000e+05
    1.0899997316e-02    1.0120000000e+05
    1.0909905657e-02    1.0120000000e+05
    1.0919868015e-02    1.0120000000e+05
    1.0929851793e-02    1.0120000000e+05
    1.0939884000e-02    1.0120000000e+05
    1.0949987918e-02    1.0120000000e+05
    1.0959642939e-02    1.0120000000e+05
    1.0969803669e-02    1.0120000000e+05
    1.0979523882e-02    1.0120000000e+05
    1.0989804752e-02    1.0120000000e+05
    1.0999575257e-02    1.0120000000e+05
    1.1009949259e-02    1.0120000000e+05
    1.1019804515e-02    1.0120000000e+05
    1.1029708199e-02    1.0120000000e+05
    1.1039691046e-02    1.0120000000e+05
    1.1049669236e-02    1.0120000000e+05
    1.1059700511e-02    1.0120000000e+05
    1.1069756001e-02    1.0120000000e+05
    1.1079906486e-02    1.0120000000e+05
    1.1089519598e-02    1.0120000000e+05
    1.1099657044e-02    1.0120000000e+05
    1.1109837331e-02    1.0120000000e+05
    1.1119586416e-02    1.0120000000e+05
    1.1129886843e-02    1.0120000000e+05
    1.1139633134e-02    1.0120000000e+05
    1.1149969883e-02    1.0120000000e+05
    1.1159878224e-02    1.0120000000e+05
    1.1169780046e-02    1.0120000000e+05
    1.1179763824e-02    1.0120000000e+05
    1.1189687997e-02    1.0120000000e+05
    1.1199618690e-02    1.0120000000e+05
    1.1209596880e-02    1.0120000000e+05
    1.1219586246e-02    1.0120000000e+05
    1.1229686439e-02    1.0120000000e+05
    1.1239770800e-02    1.0120000000e+05
    1.1249863543e-02    1.0120000000e+05
    1.1259461753e-02    1.0120000000e+05
    1.1269644834e-02    1.0120000000e+05
    1.1279837228e-02    1.0120000000e+05
    1.1289497837e-02    1.0120000000e+05
    1.1299734004e-02    1.0120000000e+05
    1.1309434660e-02    1.0120000000e+05
    1.1319736019e-02    1.0120000000e+05
    1.1329460889e-02    1.0120000000e+05
    1.1339792982e-02    1.0120000000e+05
    1.1349526234e-02    1.0120000000e+05
    1.1359819211e-02    1.0120000000e+05
    1.1369477026e-02    1.0120000000e+05
    1.1379556730e-02    1.0120000000e+05
    1.1389886029e-02    1.0120000000e+05
    1.1399881914e-02    1.0120000000e+05
    1.1409995146e-02    1.0120000000e+05
    1.1419731192e-02    1.0120000000e+05
    1.1429979466e-02    1.0120000000e+05
    1.1439806782e-02    1.0120000000e+05
    1.1449630372e-02    1.0120000000e+05
    1.1459789239e-02    1.0120000000e+05
    1.1469821446e-02    1.0120000000e+05
    1.1479686014e-02    1.0120000000e+05
    1.1489978060e-02    1.0120000000e+05
    1.1499923654e-02    1.0120000000e+05
    1.1509744450e-02    1.0120000000e+05
    1.1519814841e-02    1.0120000000e+05
    1.1529826559e-02    1.0120000000e+05
    1.1539950967e-02    1.0120000000e+05
    1.1549941264e-02    1.0120000000e+05
    1.1559990235e-02    1.0120000000e+05
    1.1569937691e-02    1.0120000000e+05
    1.1579925194e-02    1.0120000000e+05
    1.1589894071e-02    1.0120000000e+05
    1.1599841528e-02    1.0120000000e+05
    1.1609989218e-02    1.0120000000e+05
    1.1619900353e-02    1.0120000000e+05
    1.1629984714e-02    1.0120000000e+05
    1.1639831588e-02    1.0120000000e+05
    1.1649955064e-02    1.0120000000e+05
    1.1659903452e-02    1.0120000000e+05
    1.1669876054e-02    1.0120000000e+05
    1.1679908261e-02    1.0120000000e+05
    1.1689921841e-02    1.0120000000e+05
    1.1699914001e-02    1.0120000000e+05
    1.1709827930e-02    1.0120000000e+05
    1.1719876900e-02    1.0120000000e+05
    1.1729792692e-02    1.0120000000e+05
    1.1739804409e-02    1.0120000000e+05
    1.1749885976e-02    1.0120000000e+05
    1.1759800836e-02    1.0120000000e+05
    1.1769769713e-02    1.0120000000e+05
    1.1779788882e-02    1.0120000000e+05
    1.1789852753e-02    1.0120000000e+05
    1.1799956672e-02    1.0120000000e+05
    1.1809858494e-02    1.0120000000e+05
    1.1819801293e-02    1.0120000000e+05
    1.1829763651e-02    1.0120000000e+05
    1.1839773506e-02    1.0120000000e+05
    1.1849787086e-02    1.0120000000e+05
    1.1859848164e-02    1.0120000000e+05
    1.1869924143e-02    1.0120000000e+05
    1.1879771948e-02    1.0120000000e+05
    1.1889910325e-02    1.0120000000e+05
    1.1899797246e-02    1.0120000000e+05
    1.1909976602e-02    1.0120000000e+05
    1.1919898912e-02    1.0120000000e+05
    1.1929870583e-02    1.0120000000e+05
    1.1939845048e-02    1.0120000000e+05
    1.1949825101e-02    1.0120000000e+05
    1.1959853582e-02    1.0120000000e+05
    1.1969875544e-02    1.0120000000e+05
    1.1979931034e-02    1.0120000000e+05
    1.1989994906e-02    1.0120000000e+05
    1.1999845505e-02    1.0120000000e+05
    1.2009947561e-02    1.0120000000e+05
    1.2019814923e-02    1.0120000000e+05
    1.2029968202e-02    1.0120000000e+05
    1.2039874680e-02    1.0120000000e+05
    1.2049793266e-02    1.0120000000e+05
    1.2059985660e-02    1.0120000000e+05
    1.2069947086e-02    1.0120000000e+05
    1.2079907581e-02    1.0120000000e+05
    1.2089886703e-02    1.0120000000e+05
    1.2099898420e-02    1.0120000000e+05
    1.2109906413e-02    1.0120000000e+05
    1.2119919062e-02    1.0120000000e+05
    1.2129964307e-02    1.0120000000e+05
    1.2139763683e-02    1.0120000000e+05
    1.2149812654e-02    1.0120000000e+05
    1.2159885839e-02    1.0120000000e+05
    1.2169982307e-02    1.0120000000e+05
    1.2179814279e-02    1.0120000000e+05
    1.2189907953e-02    1.0120000000e+05
    1.2199788354e-02    1.0120000000e+05
    1.2209923007e-02    1.0120000000e+05
    1.2219800614e-02    1.0120000000e+05
    1.2229952961e-02    1.0120000000e+05
    1.2239870615e-02    1.0120000000e+05
    1.2249773368e-02    1.0120000000e+05
    1.2259942479e-02    1.0120000000e+05
    1.2269885279e-02    1.0120000000e+05
    1.2279826216e-02    1.0120000000e+05
    1.2289766222e-02    1.0120000000e+05
    1.2299986556e-02    1.0120000000e+05
    1.2309968472e-02    1.0120000000e+05
    1.2319938280e-02    1.0120000000e+05
    1.2329916470e-02    1.0120000000e+05
    1.2339924462e-02    1.0120000000e+05
    1.2349932455e-02    1.0120000000e+05
    1.2359934859e-02    1.0120000000e+05
    1.2369957753e-02    1.0120000000e+05
    1.2379994616e-02    1.0120000000e+05
    1.2389773503e-02    1.0120000000e+05
    1.2399815954e-02    1.0120000000e+05
    1.2409876101e-02    1.0120000000e+05
    1.2419939041e-02    1.0120000000e+05
    1.2429747730e-02    1.0120000000e+05
    1.2439827435e-02    1.0120000000e+05
    1.2449921109e-02    1.0120000000e+05
    1.2459752150e-02    1.0120000000e+05
    1.2469848618e-02    1.0120000000e+05
    1.2479961850e-02    1.0120000000e+05
    1.2489819899e-02    1.0120000000e+05
    1.2499940582e-02    1.0120000000e+05
    1.2509807013e-02    1.0120000000e+05
    1.2519945391e-02    1.0120000000e+05
    1.2529827654e-02    1.0120000000e+05
    1.2539977208e-02    1.0120000000e+05
    1.2549871579e-02    1.0120000000e+05
    1.2559773400e-02    1.0120000000e+05
    1.2569938786e-02    1.0120000000e+05
    1.2579853646e-02    1.0120000000e+05
    1.2589775026e-02    1.0120000000e+05
    1.2599959038e-02    1.0120000000e+05
    1.2609887868e-02    1.0120000000e+05
    1.2619820423e-02    1.0120000000e+05
    1.2629762292e-02    1.0120000000e+05
    1.2639967725e-02    1.0120000000e+05
    1.2649913318e-02    1.0120000000e+05
    1.2659868225e-02    1.0120000000e+05
    1.2669829652e-02    1.0120000000e+05
    1.2679796666e-02    1.0120000000e+05
    1.2689766474e-02    1.0120000000e+05
    1.2699738145e-02    1.0120000000e+05
    1.2709972449e-02    1.0120000000e+05
    1.2719954364e-02    1.0120000000e+05
    1.2729937211e-02    1.0120000000e+05
    1.2739925645e-02    1.0120000000e+05
    1.2749916874e-02    1.0120000000e+05
    1.2759912759e-02    1.0120000000e+05
    1.2769917026e-02    1.0120000000e+05
    1.2779922225e-02    1.0120000000e+05
    1.2789927423e-02    1.0120000000e+05
    1.2799931690e-02    1.0120000000e+05
    1.2809935026e-02    1.0120000000e+05
    1.2819942087e-02    1.0120000000e+05
    1.2829951942e-02    1.0120000000e+05
    1.2839963660e-02    1.0120000000e+05
    1.2849978171e-02    1.0120000000e+05
    1.2859996408e-02    1.0120000000e+05
    1.2869752012e-02    1.0120000000e+05
    1.2879773043e-02    1.0120000000e+05
    1.2889793143e-02    1.0120000000e+05
    1.2899813242e-02    1.0120000000e+05
    1.2909834273e-02    1.0120000000e+05
    1.2919854373e-02    1.0120000000e+05
    1.2929874472e-02    1.0120000000e+05
    1.2939894572e-02    1.0120000000e+05
    1.2949914671e-02    1.0120000000e+05
    1.2959934771e-02    1.0120000000e+05
    1.2969954871e-02    1.0120000000e+05
    1.2979976833e-02    1.0120000000e+05
    1.2989997864e-02    1.0120000000e+05
    1.2999756262e-02    1.0120000000e+05
    1.3009779155e-02    1.0120000000e+05
    1.3019802049e-02    1.0120000000e+05
    1.3029824942e-02    1.0120000000e+05
    1.3039848767e-02    1.0120000000e+05
    1.3049873523e-02    1.0120000000e+05
    1.3059899211e-02    1.0120000000e+05
    1.3069924898e-02    1.0120000000e+05
    1.3079951517e-02    1.0120000000e+05
    1.3089979067e-02    1.0120000000e+05
    1.3099743053e-02    1.0120000000e+05
    1.3109771535e-02    1.0120000000e+05
    1.3119800016e-02    1.0120000000e+05
    1.3129829429e-02    1.0120000000e+05
    1.3139859773e-02    1.0120000000e+05
    1.3149890117e-02    1.0120000000e+05
    1.3159920461e-02    1.0120000000e+05
    1.3169951737e-02    1.0120000000e+05
    1.3179982081e-02    1.0120000000e+05
    1.3189749792e-02    1.0120000000e+05
    1.3199780136e-02    1.0120000000e+05
    1.3209811412e-02    1.0120000000e+05
    1.3219842687e-02    1.0120000000e+05
    1.3229874894e-02    1.0120000000e+05
    1.3239908032e-02    1.0120000000e+05
    1.3249943964e-02    1.0120000000e+05
    1.3259984553e-02    1.0120000000e+05
    1.3269765303e-02    1.0120000000e+05
    1.3279811479e-02    1.0120000000e+05
    1.3289856724e-02    1.0120000000e+05
    1.3299901038e-02    1.0120000000e+05
    1.3309944421e-02    1.0120000000e+05
    1.3319987804e-02    1.0120000000e+05
    1.3329765759e-02    1.0120000000e+05
    1.3339809142e-02    1.0120000000e+05
    1.3349854387e-02    1.0120000000e+05
    1.3359902427e-02    1.0120000000e+05
    1.3369949535e-02    1.0120000000e+05
    1.3379996642e-02    1.0120000000e+05
    1.3389779255e-02    1.0120000000e+05
    1.3399826363e-02    1.0120000000e+05
    1.3409874402e-02    1.0120000000e+05
    1.3419923373e-02    1.0120000000e+05
    1.3429972343e-02    1.0120000000e+05
    1.3439756818e-02    1.0120000000e+05
    1.3449805789e-02    1.0120000000e+05
    1.3459854759e-02    1.0120000000e+05
    1.3469903730e-02    1.0120000000e+05
    1.3479952700e-02    1.0120000000e+05
    1.3489737175e-02    1.0120000000e+05
    1.3499787077e-02    1.0120000000e+05
    1.3509836048e-02    1.0120000000e+05
    1.3519885950e-02    1.0120000000e+05
    1.3529935852e-02    1.0120000000e+05
    1.3539985754e-02    1.0120000000e+05
    1.3549770229e-02    1.0120000000e+05
    1.3559820130e-02    1.0120000000e+05
    1.3569870032e-02    1.0120000000e+05
    1.3579919934e-02    1.0120000000e+05
    1.3589969836e-02    1.0120000000e+05
    1.3599756174e-02    1.0120000000e+05
    1.3609806076e-02    1.0120000000e+05
    1.3619855046e-02    1.0120000000e+05
    1.3629905879e-02    1.0120000000e+05
    1.3639956713e-02    1.0120000000e+05
    1.3649743050e-02    1.0120000000e+05
    1.3659793884e-02    1.0120000000e+05
    1.3669844717e-02    1.0120000000e+05
    1.3679894619e-02    1.0120000000e+05
    1.3689945452e-02    1.0120000000e+05
    1.3699996285e-02    1.0120000000e+05
    1.3709783554e-02    1.0120000000e+05
    1.3719834387e-02    1.0120000000e+05
    1.3729885221e-02    1.0120000000e+05
    1.3739936985e-02    1.0120000000e+05
    1.3749987818e-02    1.0120000000e+05
    1.3759774156e-02    1.0120000000e+05
    1.3769825920e-02    1.0120000000e+05
    1.3779877685e-02    1.0120000000e+05
    1.3789928518e-02    1.0120000000e+05
    1.3799980283e-02    1.0120000000e+05
    1.3809767552e-02    1.0120000000e+05
    1.3819819316e-02    1.0120000000e+05
    1.3829871081e-02    1.0120000000e+05
    1.3839922845e-02    1.0120000000e+05
    1.3849973679e-02    1.0120000000e+05
    1.3859760948e-02    1.0120000000e+05
    1.3869813643e-02    1.0120000000e+05
    1.3879865408e-02    1.0120000000e+05
    1.3889917172e-02    1.0120000000e+05
    1.3899968937e-02    1.0120000000e+05
    1.3909756206e-02    1.0120000000e+05
    1.3919808902e-02    1.0120000000e+05
    1.3929860666e-02    1.0120000000e+05
    1.3939913362e-02    1.0120000000e+05
    1.3949966058e-02    1.0120000000e+05
    1.3959753327e-02    1.0120000000e+05
    1.3969806023e-02    1.0120000000e+05
    1.3979858719e-02    1.0120000000e+05
    1.3989911415e-02    1.0120000000e+05
    1.3999964111e-02    1.0120000000e+05
    1.4009752311e-02    1.0120000000e+05
    1.4019805007e-02    1.0120000000e+05
    1.4029857703e-02    1.0120000000e+05
    1.4039910398e-02    1.0120000000e+05
    1.4049964026e-02    1.0120000000e+05
    1.4059752226e-02    1.0120000000e+05
    1.4069805853e-02    1.0120000000e+05
    1.4079859480e-02    1.0120000000e+05
    1.4089913107e-02    1.0120000000e+05
    1.4099966735e-02    1.0120000000e+05
    1.4109756798e-02    1.0120000000e+05
    1.4119810425e-02    1.0120000000e+05
    1.4129864052e-02    1.0120000000e+05
    1.4139917679e-02    1.0120000000e+05
    1.4149972238e-02    1.0120000000e+05
    1.4159761369e-02    1.0120000000e+05
    1.4169816859e-02    1.0120000000e+05
    1.4179871418e-02    1.0120000000e+05
    1.4189927839e-02    1.0120000000e+05
    1.4199983329e-02    1.0120000000e+05
    1.4209774323e-02    1.0120000000e+05
    1.4219830744e-02    1.0120000000e+05
    1.4229886234e-02    1.0120000000e+05
    1.4239942655e-02    1.0120000000e+05
    1.4249998145e-02    1.0120000000e+05
    1.4259790070e-02    1.0120000000e+05
    1.4269846492e-02    1.0120000000e+05
    1.4279902913e-02    1.0120000000e+05
    1.4289959334e-02    1.0120000000e+05
    1.4299751259e-02    1.0120000000e+05
    1.4309808612e-02    1.0120000000e+05
    1.4319865033e-02    1.0120000000e+05
    1.4329922386e-02    1.0120000000e+05
    1.4339979738e-02    1.0120000000e+05
    1.4349772595e-02    1.0120000000e+05
    1.4359829947e-02    1.0120000000e+05
    1.4369888231e-02    1.0120000000e+05
    1.4379945584e-02    1.0120000000e+05
    1.4389739372e-02    1.0120000000e+05
    1.4399798587e-02    1.0120000000e+05
    1.4409856871e-02    1.0120000000e+05
    1.4419916086e-02    1.0120000000e+05
    1.4429975301e-02    1.0120000000e+05
    1.4439770021e-02    1.0120000000e+05
    1.4449829236e-02    1.0120000000e+05
    1.4459888451e-02    1.0120000000e+05
    1.4469948597e-02    1.0120000000e+05
    1.4479743317e-02    1.0120000000e+05
    1.4489802532e-02    1.0120000000e+05
    1.4499862678e-02    1.0120000000e+05
    1.4509922825e-02    1.0120000000e+05
    1.4519982971e-02    1.0120000000e+05
    1.4529778622e-02    1.0120000000e+05
    1.4539839700e-02    1.0120000000e+05
    1.4549900778e-02    1.0120000000e+05
    1.4559961855e-02    1.0120000000e+05
    1.4569758438e-02    1.0120000000e+05
    1.4579819515e-02    1.0120000000e+05
    1.4589881524e-02    1.0120000000e+05
    1.4599942602e-02    1.0120000000e+05
    1.4609740116e-02    1.0120000000e+05
    1.4619802125e-02    1.0120000000e+05
    1.4629864134e-02    1.0120000000e+05
    1.4639927074e-02    1.0120000000e+05
    1.4649989083e-02    1.0120000000e+05
    1.4659787528e-02    1.0120000000e+05
    1.4669850469e-02    1.0120000000e+05
    1.4679912478e-02    1.0120000000e+05
    1.4689976349e-02    1.0120000000e+05
    1.4699774794e-02    1.0120000000e+05
    1.4709838666e-02    1.0120000000e+05
    1.4719902538e-02    1.0120000000e+05
    1.4729966410e-02    1.0120000000e+05
    1.4739764854e-02    1.0120000000e+05
    1.4749829657e-02    1.0120000000e+05
    1.4759893529e-02    1.0120000000e+05
    1.4769958332e-02    1.0120000000e+05
    1.4779758640e-02    1.0120000000e+05
    1.4789823443e-02    1.0120000000e+05
    1.4799888246e-02    1.0120000000e+05
    1.4809953049e-02    1.0120000000e+05
    1.4819753356e-02    1.0120000000e+05
    1.4829819091e-02    1.0120000000e+05
    1.4839884825e-02    1.0120000000e+05
    1.4849950559e-02    1.0120000000e+05
    1.4859751798e-02    1.0120000000e+05
    1.4869817533e-02    1.0120000000e+05
    1.4879883267e-02    1.0120000000e+05
    1.4889949933e-02    1.0120000000e+05
    1.4899751171e-02    1.0120000000e+05
    1.4909817837e-02    1.0120000000e+05
    1.4919884503e-02    1.0120000000e+05
    1.4929951169e-02    1.0120000000e+05
    1.4939753339e-02    1.0120000000e+05
    1.4949820936e-02    1.0120000000e+05
    1.4959888533e-02    1.0120000000e+05
    1.4969956130e-02    1.0120000000e+05
    1.4979758300e-02    1.0120000000e+05
    1.4989825897e-02    1.0120000000e+05
    1.4999894425e-02    1.0120000000e+05
    1.5009962022e-02    1.0120000000e+05
    1.5019765124e-02    1.0120000000e+05
    1.5029833652e-02    1.0120000000e+05
    1.5039902180e-02    1.0120000000e+05
    1.5049970709e-02    1.0120000000e+05
    1.5059774742e-02    1.0120000000e+05
    1.5069843270e-02    1.0120000000e+05
    1.5079912730e-02    1.0120000000e+05
    1.5089982189e-02    1.0120000000e+05
    1.5099786222e-02    1.0120000000e+05
    1.5109855682e-02    1.0120000000e+05
    1.5119925141e-02    1.0120000000e+05
    1.5129994601e-02    1.0120000000e+05
    1.5139799565e-02    1.0120000000e+05
    1.5149869956e-02    1.0120000000e+05
    1.5159940347e-02    1.0120000000e+05
    1.5169745311e-02    1.0120000000e+05
    1.5179815702e-02    1.0120000000e+05
    1.5189886093e-02    1.0120000000e+05
    1.5199956484e-02    1.0120000000e+05
    1.5209762380e-02    1.0120000000e+05
    1.5219833702e-02    1.0120000000e+05
    1.5229905024e-02    1.0120000000e+05
    1.5239976346e-02    1.0120000000e+05
    1.5249782242e-02    1.0120000000e+05
    1.5259853564e-02    1.0120000000e+05
    1.5269924887e-02    1.0120000000e+05
    1.5279997140e-02    1.0120000000e+05
    1.5289803967e-02    1.0120000000e+05
    1.5299876221e-02    1.0120000000e+05
    1.5309948474e-02    1.0120000000e+05
    1.5319755301e-02    1.0120000000e+05
    1.5329827555e-02    1.0120000000e+05
    1.5339899808e-02    1.0120000000e+05
    1.5349972062e-02    1.0120000000e+05
    1.5359779820e-02    1.0120000000e+05
    1.5369853005e-02    1.0120000000e+05
    1.5379925258e-02    1.0120000000e+05
    1.5389998443e-02    1.0120000000e+05
    1.5399806201e-02    1.0120000000e+05
    1.5409880318e-02    1.0120000000e+05
    1.5419953503e-02    1.0120000000e+05
    1.5429762192e-02    1.0120000000e+05
    1.5439835377e-02    1.0120000000e+05
    1.5449909493e-02    1.0120000000e+05
    1.5459982678e-02    1.0120000000e+05
    1.5469791368e-02    1.0120000000e+05
    1.5479865484e-02    1.0120000000e+05
    1.5489939600e-02    1.0120000000e+05
    1.5499749221e-02    1.0120000000e+05
    1.5509823337e-02    1.0120000000e+05
    1.5519897453e-02    1.0120000000e+05
    1.5529972501e-02    1.0120000000e+05
    1.5539782122e-02    1.0120000000e+05
    1.5549856238e-02    1.0120000000e+05
    1.5559931286e-02    1.0120000000e+05
    1.5569740906e-02    1.0120000000e+05
    1.5579815954e-02    1.0120000000e+05
    1.5589891002e-02    1.0120000000e+05
    1.5599966981e-02    1.0120000000e+05
    1.5609776601e-02    1.0120000000e+05
    1.5619852580e-02    1.0120000000e+05
    1.5629928559e-02    1.0120000000e+05
    1.5639739111e-02    1.0120000000e+05
    1.5649814159e-02    1.0120000000e+05
    1.5659889206e-02    1.0120000000e+05
    1.5669966117e-02    1.0120000000e+05
    1.5679776669e-02    1.0120000000e+05
    1.5689853579e-02    1.0120000000e+05
    1.5699928626e-02    1.0120000000e+05
    1.5709741041e-02    1.0120000000e+05
    1.5719816089e-02    1.0120000000e+05
    1.5729892999e-02    1.0120000000e+05
    1.5739969909e-02    1.0120000000e+05
    1.5749780461e-02    1.0120000000e+05
    1.5759857371e-02    1.0120000000e+05
    1.5769934282e-02    1.0120000000e+05
    1.5779744834e-02    1.0120000000e+05
    1.5789821744e-02    1.0120000000e+05
    1.5799898654e-02    1.0120000000e+05
    1.5809977427e-02    1.0120000000e+05
    1.5819787979e-02    1.0120000000e+05
    1.5829866752e-02    1.0120000000e+05
    1.5839943662e-02    1.0120000000e+05
    1.5849756077e-02    1.0120000000e+05
    1.5859832987e-02    1.0120000000e+05
    1.5869909897e-02    1.0120000000e+05
    1.5879988670e-02    1.0120000000e+05
    1.5889801085e-02    1.0120000000e+05
    1.5899877995e-02    1.0120000000e+05
    1.5909954906e-02    1.0120000000e+05
    1.5919767320e-02    1.0120000000e+05
    1.5929846093e-02    1.0120000000e+05
    1.5939923003e-02    1.0120000000e+05
    1.5949735418e-02    1.0120000000e+05
    1.5959814191e-02    1.0120000000e+05
    1.5969892964e-02    1.0120000000e+05
    1.5979969874e-02    1.0120000000e+05
    1.5989784151e-02    1.0120000000e+05
    1.5999861062e-02    1.0120000000e+05
    1.6009939834e-02    1.0120000000e+05
    1.6019752249e-02    1.0120000000e+05
    1.6029831022e-02    1.0120000000e+05
    1.6039909795e-02    1.0120000000e+05
    1.6049988568e-02    1.0120000000e+05
    1.6059800982e-02    1.0120000000e+05
    1.6069879755e-02    1.0120000000e+05
    1.6079958528e-02    1.0120000000e+05
    1.6089770943e-02    1.0120000000e+05
    1.6099849716e-02    1.0120000000e+05
    1.6109928489e-02    1.0120000000e+05
    1.6119740903e-02    1.0120000000e+05
    1.6129819676e-02    1.0120000000e+05
    1.6139898449e-02    1.0120000000e+05
    1.6149977222e-02    1.0120000000e+05
    1.6159791499e-02    1.0120000000e+05
    1.6169870272e-02    1.0120000000e+05
    1.6179949045e-02    1.0120000000e+05
    1.6189761460e-02    1.0120000000e+05
    1.6199840233e-02    1.0120000000e+05
    1.6209919006e-02    1.0120000000e+05
    1.6219997779e-02    1.0120000000e+05
    1.6229812056e-02    1.0120000000e+05
    1.6239890829e-02    1.0120000000e+05
    1.6249969602e-02    1.0120000000e+05
    1.6259783879e-02    1.0120000000e+05
    1.6269862652e-02    1.0120000000e+05
    1.6279941425e-02    1.0120000000e+05
    1.6289755702e-02    1.0120000000e+05
    1.6299834475e-02    1.0120000000e+05
    1.6309913248e-02    1.0120000000e+05
    1.6319992021e-02    1.0120000000e+05
    1.6329804435e-02    1.0120000000e+05
    1.6339883208e-02    1.0120000000e+05
    1.6349961981e-02    1.0120000000e+05
    1.6359776258e-02    1.0120000000e+05
    1.6369855031e-02    1.0120000000e+05
    1.6379933804e-02    1.0120000000e+05
    1.6389748082e-02    1.0120000000e+05
    1.6399826854e-02    1.0120000000e+05
    1.6409905627e-02    1.0120000000e+05
    1.6419984400e-02    1.0120000000e+05
    1.6429796815e-02    1.0120000000e+05
    1.6439875588e-02    1.0120000000e+05
    1.6449954361e-02    1.0120000000e+05
    1.6459768638e-02    1.0120000000e+05
    1.6469847411e-02    1.0120000000e+05
    1.6479926184e-02    1.0120000000e+05
    1.6489738598e-02    1.0120000000e+05
    1.6499817371e-02    1.0120000000e+05
    1.6509896144e-02    1.0120000000e+05
    1.6519974917e-02    1.0120000000e+05
    1.6529789194e-02    1.0120000000e+05
    1.6539867967e-02    1.0120000000e+05
    1.6549946740e-02    1.0120000000e+05
    1.6559759155e-02    1.0120000000e+05
    1.6569837928e-02    1.0120000000e+05
    1.6579916701e-02    1.0120000000e+05
    1.6589995474e-02    1.0120000000e+05
    1.6599807888e-02    1.0120000000e+05
    1.6609886661e-02    1.0120000000e+05
    1.6619965434e-02    1.0120000000e+05
    1.6629779711e-02    1.0120000000e+05
    1.6639858484e-02    1.0120000000e+05
    1.6649935395e-02    1.0120000000e+05
    1.6659749672e-02    1.0120000000e+05
    1.6669828445e-02    1.0120000000e+05
    1.6679907218e-02    1.0120000000e+05
    1.6689985991e-02    1.0120000000e+05
    1.6699798405e-02    1.0120000000e+05
    1.6709877178e-02    1.0120000000e+05
    1.6719955951e-02    1.0120000000e+05
    1.6729770228e-02    1.0120000000e+05
    1.6739849001e-02    1.0120000000e+05
    1.6749929637e-02    1.0120000000e+05
    1.6759743914e-02    1.0120000000e+05
    1.6769822687e-02    1.0120000000e+05
    1.6779903322e-02    1.0120000000e+05
    1.6789982095e-02    1.0120000000e+05
    1.6799796373e-02    1.0120000000e+05
    1.6809877008e-02    1.0120000000e+05
    1.6819957644e-02    1.0120000000e+05
    1.6829773784e-02    1.0120000000e+05
    1.6839854419e-02    1.0120000000e+05
    1.6849935055e-02    1.0120000000e+05
    1.6859751195e-02    1.0120000000e+05
    1.6869831830e-02    1.0120000000e+05
    1.6879912466e-02    1.0120000000e+05
    1.6889994964e-02    1.0120000000e+05
    1.6899811104e-02    1.0120000000e+05
    1.6909893602e-02    1.0120000000e+05
    1.6919976100e-02    1.0120000000e+05
    1.6929794103e-02    1.0120000000e+05
    1.6939876601e-02    1.0120000000e+05
    1.6949959099e-02    1.0120000000e+05
    1.6959777102e-02    1.0120000000e+05
    1.6969861463e-02    1.0120000000e+05
    1.6979943961e-02    1.0120000000e+05
    1.6989763826e-02    1.0120000000e+05
    1.6999848187e-02    1.0120000000e+05
    1.7009932548e-02    1.0120000000e+05
    1.7019752413e-02    1.0120000000e+05
    1.7029836774e-02    1.0120000000e+05
    1.7039922997e-02    1.0120000000e+05
    1.7049742863e-02    1.0120000000e+05
    1.7059829086e-02    1.0120000000e+05
    1.7069915310e-02    1.0120000000e+05
    1.7079737037e-02    1.0120000000e+05
    1.7089825124e-02    1.0120000000e+05
    1.7099913210e-02    1.0120000000e+05
    1.7109736800e-02    1.0120000000e+05
    1.7119824886e-02    1.0120000000e+05
    1.7129912972e-02    1.0120000000e+05
    1.7139736563e-02    1.0120000000e+05
    1.7149824649e-02    1.0120000000e+05
    1.7159914598e-02    1.0120000000e+05
    1.7169738188e-02    1.0120000000e+05
    1.7179826275e-02    1.0120000000e+05
    1.7189916223e-02    1.0120000000e+05
    1.7199741676e-02    1.0120000000e+05
    1.7209833488e-02    1.0120000000e+05
    1.7219925299e-02    1.0120000000e+05
    1.7229752615e-02    1.0120000000e+05
    1.7239844427e-02    1.0120000000e+05
    1.7249938101e-02    1.0120000000e+05
    1.7259767279e-02    1.0120000000e+05
    1.7269862816e-02    1.0120000000e+05
    1.7279956490e-02    1.0120000000e+05
    1.7289785668e-02    1.0120000000e+05
    1.7299883068e-02    1.0120000000e+05
    1.7309978604e-02    1.0120000000e+05
    1.7319811508e-02    1.0120000000e+05
    1.7329908907e-02    1.0120000000e+05
    1.7339741811e-02    1.0120000000e+05
    1.7349839211e-02    1.0120000000e+05
    1.7359940335e-02    1.0120000000e+05
    1.7369773239e-02    1.0120000000e+05
    1.7379874364e-02    1.0120000000e+05
    1.7389975488e-02    1.0120000000e+05
    1.7399810255e-02    1.0120000000e+05
    1.7409913242e-02    1.0120000000e+05
    1.7419751734e-02    1.0120000000e+05
    1.7429856583e-02    1.0120000000e+05
    1.7439961433e-02    1.0120000000e+05
    1.7449803650e-02    1.0120000000e+05
    1.7459912226e-02    1.0120000000e+05
    1.7469754443e-02    1.0120000000e+05
    1.7479866743e-02    1.0120000000e+05
    1.7489977181e-02    1.0120000000e+05
    1.7499823123e-02    1.0120000000e+05
    1.7509937286e-02    1.0120000000e+05
    1.7519783229e-02    1.0120000000e+05
    1.7529897392e-02    1.0120000000e+05
    1.7539747059e-02    1.0120000000e+05
    1.7549863085e-02    1.0120000000e+05
    1.7559982836e-02    1.0120000000e+05
    1.7569834366e-02    1.0120000000e+05
    1.7579954118e-02    1.0120000000e+05
    1.7589811236e-02    1.0120000000e+05
    1.7599934712e-02    1.0120000000e+05
    1.7609793693e-02    1.0120000000e+05
    1.7619920895e-02    1.0120000000e+05
    1.7629779875e-02    1.0120000000e+05
    1.7639907077e-02    1.0120000000e+05
    1.7649773508e-02    1.0120000000e+05
    1.7659902573e-02    1.0120000000e+05
    1.7669770867e-02    1.0120000000e+05
    1.7679903656e-02    1.0120000000e+05
    1.7689771950e-02    1.0120000000e+05
    1.7699910328e-02    1.0120000000e+05
    1.7709782347e-02    1.0120000000e+05
    1.7719922587e-02    1.0120000000e+05
    1.7729800195e-02    1.0120000000e+05
    1.7739940435e-02    1.0120000000e+05
    1.7749819905e-02    1.0120000000e+05
    1.7759969458e-02    1.0120000000e+05
    1.7769848928e-02    1.0120000000e+05
    1.7779998481e-02    1.0120000000e+05
    1.7789883539e-02    1.0120000000e+05
    1.7799768597e-02    1.0120000000e+05
    1.7809927464e-02    1.0120000000e+05
    1.7819816247e-02    1.0120000000e+05
    1.7829973251e-02    1.0120000000e+05
    1.7839871347e-02    1.0120000000e+05
    1.7849765718e-02    1.0120000000e+05
    1.7859930173e-02    1.0120000000e+05
    1.7869830132e-02    1.0120000000e+05
    1.7879994586e-02    1.0120000000e+05
    1.7889896408e-02    1.0120000000e+05
    1.7899803817e-02    1.0120000000e+05
    1.7909977585e-02    1.0120000000e+05
    1.7919888720e-02    1.0120000000e+05
    1.7929799855e-02    1.0120000000e+05
    1.7939977348e-02    1.0120000000e+05
    1.7949892208e-02    1.0120000000e+05
    1.7959807068e-02    1.0120000000e+05
    1.7969990149e-02    1.0120000000e+05
    1.7979914322e-02    1.0120000000e+05
    1.7989836633e-02    1.0120000000e+05
    1.7999760807e-02    1.0120000000e+05
    1.8009958789e-02    1.0120000000e+05
    1.8019884825e-02    1.0120000000e+05
    1.8029812723e-02    1.0120000000e+05
    1.8039746210e-02    1.0120000000e+05
    1.8049944192e-02    1.0120000000e+05
    1.8059879541e-02    1.0120000000e+05
    1.8069816753e-02    1.0120000000e+05
    1.8079753965e-02    1.0120000000e+05
    1.8089964986e-02    1.0120000000e+05
    1.8099909648e-02    1.0120000000e+05
    1.8109850585e-02    1.0120000000e+05
    1.8119798973e-02    1.0120000000e+05
    1.8129747361e-02    1.0120000000e+05
    1.8139967695e-02    1.0120000000e+05
    1.8149923533e-02    1.0120000000e+05
    1.8159879372e-02    1.0120000000e+05
    1.8169838935e-02    1.0120000000e+05
    1.8179800361e-02    1.0120000000e+05
    1.8189759925e-02    1.0120000000e+05
    1.8199989572e-02    1.0120000000e+05
    1.8209954724e-02    1.0120000000e+05
    1.8219918013e-02    1.0120000000e+05
    1.8229888752e-02    1.0120000000e+05
    1.8239861354e-02    1.0120000000e+05
    1.8249832094e-02    1.0120000000e+05
    1.8259810284e-02    1.0120000000e+05
    1.8269784749e-02    1.0120000000e+05
    1.8279759213e-02    1.0120000000e+05
    1.8289741129e-02    1.0120000000e+05
    1.8299993128e-02    1.0120000000e+05
    1.8309980631e-02    1.0120000000e+05
    1.8319969997e-02    1.0120000000e+05
    1.8329959363e-02    1.0120000000e+05
    1.8339950591e-02    1.0120000000e+05
    1.8349945545e-02    1.0120000000e+05
    1.8359938636e-02    1.0120000000e+05
    1.8369935453e-02    1.0120000000e+05
    1.8379935995e-02    1.0120000000e+05
    1.8389936537e-02    1.0120000000e+05
    1.8399944529e-02    1.0120000000e+05
    1.8409952521e-02    1.0120000000e+05
    1.8419960514e-02    1.0120000000e+05
    1.8429972231e-02    1.0120000000e+05
    1.8439983949e-02    1.0120000000e+05
    1.8449995667e-02    1.0120000000e+05
    1.8459742889e-02    1.0120000000e+05
    1.8469762057e-02    1.0120000000e+05
    1.8479784951e-02    1.0120000000e+05
    1.8489813432e-02    1.0120000000e+05
    1.8499838188e-02    1.0120000000e+05
    1.8509864807e-02    1.0120000000e+05
    1.8519897014e-02    1.0120000000e+05
    1.8529925495e-02    1.0120000000e+05
    1.8539961427e-02    1.0120000000e+05
    1.8549999222e-02    1.0120000000e+05
    1.8559766933e-02    1.0120000000e+05
    1.8569810316e-02    1.0120000000e+05
    1.8579855561e-02    1.0120000000e+05
    1.8589900807e-02    1.0120000000e+05
    1.8599947914e-02    1.0120000000e+05
    1.8609998748e-02    1.0120000000e+05
    1.8619777635e-02    1.0120000000e+05
    1.8629835919e-02    1.0120000000e+05
    1.8639894202e-02    1.0120000000e+05
    1.8649956211e-02    1.0120000000e+05
    1.8659751862e-02    1.0120000000e+05
    1.8669817597e-02    1.0120000000e+05
    1.8679883331e-02    1.0120000000e+05
    1.8689954653e-02    1.0120000000e+05
    1.8699754030e-02    1.0120000000e+05
    1.8709829077e-02    1.0120000000e+05
    1.8719909713e-02    1.0120000000e+05
    1.8729990348e-02    1.0120000000e+05
    1.8739802763e-02    1.0120000000e+05
    1.8749888986e-02    1.0120000000e+05
    1.8759977072e-02    1.0120000000e+05
    1.8769795075e-02    1.0120000000e+05
    1.8779888749e-02    1.0120000000e+05
    1.8789984286e-02    1.0120000000e+05
    1.8799815327e-02    1.0120000000e+05
    1.8809920177e-02    1.0120000000e+05
    1.8819753081e-02    1.0120000000e+05
    1.8829861656e-02    1.0120000000e+05
    1.8839972094e-02    1.0120000000e+05
    1.8849810585e-02    1.0120000000e+05
    1.8859924749e-02    1.0120000000e+05
    1.8869766966e-02    1.0120000000e+05
    1.8879886717e-02    1.0120000000e+05
    1.8889736384e-02    1.0120000000e+05
    1.8899861723e-02    1.0120000000e+05
    1.8909987062e-02    1.0120000000e+05
    1.8919840455e-02    1.0120000000e+05
    1.8929969519e-02    1.0120000000e+05
    1.8939826638e-02    1.0120000000e+05
    1.8949961290e-02    1.0120000000e+05
    1.8959822133e-02    1.0120000000e+05
    1.8969960511e-02    1.0120000000e+05
    1.8979826942e-02    1.0120000000e+05
    1.8989967182e-02    1.0120000000e+05
    1.8999833614e-02    1.0120000000e+05
    1.9009975716e-02    1.0120000000e+05
    1.9019845873e-02    1.0120000000e+05
    1.9029993564e-02    1.0120000000e+05
    1.9039869308e-02    1.0120000000e+05
    1.9049746916e-02    1.0120000000e+05
    1.9059902057e-02    1.0120000000e+05
    1.9069783390e-02    1.0120000000e+05
    1.9079942256e-02    1.0120000000e+05
    1.9089827314e-02    1.0120000000e+05
    1.9099982455e-02    1.0120000000e+05
    1.9109861925e-02    1.0120000000e+05
    1.9119737670e-02    1.0120000000e+05
    1.9129883498e-02    1.0120000000e+05
    1.9139748067e-02    1.0120000000e+05
    1.9149882719e-02    1.0120000000e+05
    1.9159737974e-02    1.0120000000e+05
    1.9169950858e-02    1.0120000000e+05
    1.9179778174e-02    1.0120000000e+05
    1.9189761952e-02    1.0120000000e+05
    1.9199902192e-02    1.0120000000e+05
    1.9209902734e-02    1.0120000000e+05
    1.9219744951e-02    1.0120000000e+05
    1.9229723141e-02    1.0120000000e+05
    1.9239837304e-02    1.0120000000e+05
    1.9249774516e-02    1.0120000000e+05
    1.9259836525e-02    1.0120000000e+05
    1.9269704819e-02    1.0120000000e+05
    1.9279692322e-02    1.0120000000e+05
    1.9289797172e-02    1.0120000000e+05
    1.9299691543e-02    1.0120000000e+05
    1.9309692085e-02    1.0120000000e+05
    1.9319808111e-02    1.0120000000e+05
    1.9329693168e-02    1.0120000000e+05
    1.9339675084e-02    1.0120000000e+05
    1.9349761307e-02    1.0120000000e+05
    1.9359953701e-02    1.0120000000e+05
    1.9369894639e-02    1.0120000000e+05
    1.9379919395e-02    1.0120000000e+05
    1.9389681518e-02    1.0120000000e+05
    1.9399894401e-02    1.0120000000e+05
    1.9409827888e-02    1.0120000000e+05
    1.9419856369e-02    1.0120000000e+05
    1.9429957494e-02    1.0120000000e+05
    1.9439755008e-02    1.0120000000e+05
[...]
    1.3513983786e-01    1.0122914844e+05
    1.3514970243e-01    1.0122912500e+05
    1.3515989482e-01    1.0122911719e+05
    1.3516975939e-01    1.0122910156e+05
    1.3517995179e-01    1.0122909375e+05
    1.3518981636e-01    1.0122908594e+05
    1.3519969583e-01    1.0122907031e+05
    1.3520988822e-01    1.0122905469e+05
    1.3521975279e-01    1.0122903906e+05
    1.3522994518e-01    1.0122903125e+05
    1.3523980975e-01    1.0122902344e+05
    1.3525000215e-01    1.0122900781e+05
    1.3525986671e-01    1.0122900000e+05
    1.3526974618e-01    1.0122897656e+05
    1.3527993858e-01    1.0122897656e+05
    1.3528980315e-01    1.0122896094e+05
    1.3529999554e-01    1.0122896094e+05
    1.3530986011e-01    1.0122893750e+05
    1.3531973958e-01    1.0122892969e+05
    1.3532991707e-01    1.0122891406e+05
    1.3533979654e-01    1.0122890625e+05
    1.3534998894e-01    1.0122889844e+05
    1.3535985351e-01    1.0122888281e+05
    1.3536973298e-01    1.0122887500e+05
    1.3537991047e-01    1.0122885156e+05
    1.3538978994e-01    1.0122885156e+05
    1.3539996743e-01    1.0122883594e+05
    1.3540984690e-01    1.0122883594e+05
    1.3541972637e-01    1.0122882031e+05
    1.3542990386e-01    1.0122880469e+05
    1.3543978333e-01    1.0122878906e+05
    1.3544996083e-01    1.0122878125e+05
    1.3545984030e-01    1.0122877344e+05
    1.3546971977e-01    1.0122875781e+05
    1.3547989726e-01    1.0122875000e+05
    1.3548977673e-01    1.0122874219e+05
    1.3549995422e-01    1.0122872656e+05
    1.3550983369e-01    1.0122871875e+05
    1.3551971316e-01    1.0122871094e+05
    1.3552989066e-01    1.0122869531e+05
    1.3553977013e-01    1.0122867969e+05
    1.3554994762e-01    1.0122866406e+05
    1.3555982709e-01    1.0122865625e+05
    1.3556970656e-01    1.0122864844e+05
    1.3557988405e-01    1.0122863281e+05
    1.3558976352e-01    1.0122862500e+05
    1.3559994102e-01    1.0122860156e+05
    1.3560982049e-01    1.0122860156e+05
    1.3561999798e-01    1.0122858594e+05
    1.3562987745e-01    1.0122858594e+05
    1.3563975692e-01    1.0122856250e+05
    1.3564993441e-01    1.0122855469e+05
    1.3565981388e-01    1.0122853906e+05
    1.3566999137e-01    1.0122853125e+05
    1.3567987084e-01    1.0122852344e+05
    1.3568973541e-01    1.0122850781e+05
    1.3569992781e-01    1.0122849219e+05
    1.3570980728e-01    1.0122847656e+05
    1.3571998477e-01    1.0122846875e+05
    1.3572986424e-01    1.0122846094e+05
    1.3573972881e-01    1.0122844531e+05
    1.3574992120e-01    1.0122842969e+05
    1.3575978577e-01    1.0122841406e+05
    1.3576997817e-01    1.0122840625e+05
    1.3577984273e-01    1.0122839844e+05
    1.3578972220e-01    1.0122838281e+05
    1.3579991460e-01    1.0122836719e+05
    1.3580977917e-01    1.0122835156e+05
    1.3581997156e-01    1.0122834375e+05
    1.3582983613e-01    1.0122833594e+05
    1.3583971560e-01    1.0122832031e+05
    1.3584989309e-01    1.0122830469e+05
    1.3585977256e-01    1.0122828906e+05
    1.3586996496e-01    1.0122828125e+05
    1.3587982953e-01    1.0122827344e+05
    1.3588970900e-01    1.0122825781e+05
    1.3589988649e-01    1.0122824219e+05
    1.3590976596e-01    1.0122822656e+05
    1.3591994345e-01    1.0122821875e+05
    1.3592982292e-01    1.0122821094e+05
    1.3593970239e-01    1.0122819531e+05
    1.3594987988e-01    1.0122817969e+05
    1.3595975935e-01    1.0122816406e+05
    1.3596993685e-01    1.0122815625e+05
    1.3597981632e-01    1.0122814844e+05
    1.3598969579e-01    1.0122812500e+05
    1.3599987328e-01    1.0122811719e+05
    1.3600975275e-01    1.0122810156e+05
    1.3601993024e-01    1.0122808594e+05
    1.3602980971e-01    1.0122808594e+05
    1.3603998721e-01    1.0122806250e+05
    1.3604986668e-01    1.0122803906e+05
    1.3605974615e-01    1.0122803906e+05
    1.3606992364e-01    1.0122802344e+05
    1.3607980311e-01    1.0122800781e+05
    1.3608998060e-01    1.0122800000e+05
    1.3609986007e-01    1.0122797656e+05
    1.3610973954e-01    1.0122796875e+05
    1.3611991704e-01    1.0122796094e+05
    1.3612979650e-01    1.0122794531e+05
    1.3613997400e-01    1.0122792969e+05
    1.3614985347e-01    1.0122791406e+05
    1.3615973294e-01    1.0122790625e+05
    1.3616991043e-01    1.0122789844e+05
    1.3617978990e-01    1.0122787500e+05
    1.3618996739e-01    1.0122786719e+05
    1.3619984686e-01    1.0122785156e+05
    1.3620971143e-01    1.0122784375e+05
    1.3621990383e-01    1.0122783594e+05
    1.3622978330e-01    1.0122781250e+05
    1.3623996079e-01    1.0122778906e+05
    1.3624984026e-01    1.0122778906e+05
    1.3625970483e-01    1.0122777344e+05
    1.3626989722e-01    1.0122775781e+05
    1.3627976179e-01    1.0122775000e+05
    1.3628995419e-01    1.0122772656e+05
    1.3629983366e-01    1.0122772656e+05
    1.3630969822e-01    1.0122771094e+05
    1.3631989062e-01    1.0122769531e+05
    1.3632975519e-01    1.0122768750e+05
    1.3633994758e-01    1.0122766406e+05
    1.3634981215e-01    1.0122765625e+05
    1.3635969162e-01    1.0122764844e+05
    1.3636988401e-01    1.0122763281e+05
    1.3637974858e-01    1.0122762500e+05
    1.3638994098e-01    1.0122760156e+05
    1.3639980555e-01    1.0122759375e+05
    1.3640999794e-01    1.0122758594e+05
    1.3641986251e-01    1.0122757031e+05
    1.3642974198e-01    1.0122755469e+05
    1.3643993437e-01    1.0122753906e+05
    1.3644979894e-01    1.0122753125e+05
    1.3645999134e-01    1.0122752344e+05
    1.3646985590e-01    1.0122750781e+05
    1.3647973537e-01    1.0122749219e+05
    1.3648991287e-01    1.0122747656e+05
    1.3649979234e-01    1.0122746875e+05
    1.3650998473e-01    1.0122746094e+05
    1.3651984930e-01    1.0122744531e+05
    1.3652972877e-01    1.0122743750e+05
    1.3653990626e-01    1.0122741406e+05
    1.3654978573e-01    1.0122740625e+05
    1.3655996323e-01    1.0122739844e+05
    1.3656984270e-01    1.0122738281e+05
    1.3657972217e-01    1.0122737500e+05
    1.3658989966e-01    1.0122735156e+05
    1.3659977913e-01    1.0122735156e+05
    1.3660995662e-01    1.0122733594e+05
    1.3661983609e-01    1.0122733594e+05
    1.3662971556e-01    1.0122731250e+05
    1.3663989305e-01    1.0122730469e+05
    1.3664977252e-01    1.0122728906e+05
    1.3665995002e-01    1.0122728125e+05
    1.3666982949e-01    1.0122727344e+05
    1.3667970896e-01    1.0122725781e+05
    1.3668988645e-01    1.0122724219e+05
    1.3669976592e-01    1.0122722656e+05
    1.3670994341e-01    1.0122721875e+05
    1.3671982288e-01    1.0122721094e+05
    1.3672970235e-01    1.0122719531e+05
    1.3673987985e-01    1.0122718750e+05
    1.3674975932e-01    1.0122716406e+05
    1.3675993681e-01    1.0122716406e+05
    1.3676981628e-01    1.0122714844e+05
    1.3677999377e-01    1.0122714844e+05
    1.3678987324e-01    1.0122712500e+05
    1.3679975271e-01    1.0122711719e+05
    1.3680993021e-01    1.0122710156e+05
    1.3681980968e-01    1.0122709375e+05
    1.3682998717e-01    1.0122708594e+05
    1.3683986664e-01    1.0122707031e+05
    1.3684973121e-01    1.0122705469e+05
    1.3685992360e-01    1.0122703906e+05
    1.3686978817e-01    1.0122703906e+05
    1.3687998056e-01    1.0122702344e+05
    1.3688986003e-01    1.0122702344e+05
    1.3689972460e-01    1.0122700000e+05
    1.3690991700e-01    1.0122699219e+05
    1.3691978157e-01    1.0122697656e+05
    1.3692997396e-01    1.0122696875e+05
    1.3693983853e-01    1.0122696094e+05
    1.3694971800e-01    1.0122694531e+05
    1.3695991039e-01    1.0122693750e+05
    1.3696977496e-01    1.0122691406e+05
    1.3697996736e-01    1.0122691406e+05
    1.3698983192e-01    1.0122689844e+05
    1.3699971139e-01    1.0122689844e+05
    1.3700988889e-01    1.0122688281e+05
    1.3701976836e-01    1.0122686719e+05
    1.3702996075e-01    1.0122685156e+05
    1.3703982532e-01    1.0122684375e+05
    1.3704970479e-01    1.0122683594e+05
    1.3705988228e-01    1.0122683594e+05
    1.3706976175e-01    1.0122681250e+05
    1.3707993925e-01    1.0122680469e+05
    1.3708981872e-01    1.0122678906e+05
    1.3709969819e-01    1.0122678125e+05
    1.3710987568e-01    1.0122677344e+05
    1.3711975515e-01    1.0122675781e+05
    1.3712993264e-01    1.0122675000e+05
    1.3713981211e-01    1.0122672656e+05
    1.3714998960e-01    1.0122672656e+05
    1.3715986907e-01    1.0122671875e+05
    1.3716974854e-01    1.0122671094e+05
    1.3717992604e-01    1.0122669531e+05
    1.3718980551e-01    1.0122667969e+05
    1.3719998300e-01    1.0122666406e+05
    1.3720986247e-01    1.0122666406e+05
    1.3721974194e-01    1.0122664844e+05
    1.3722991943e-01    1.0122664844e+05
    1.3723979890e-01    1.0122663281e+05
    1.3724997640e-01    1.0122661719e+05
    1.3725985587e-01    1.0122660156e+05
    1.3726973534e-01    1.0122659375e+05
    1.3727991283e-01    1.0122658594e+05
    1.3728979230e-01    1.0122658594e+05
    1.3729996979e-01    1.0122656250e+05
    1.3730984926e-01    1.0122655469e+05
    1.3731972873e-01    1.0122653906e+05
    1.3732990623e-01    1.0122653125e+05
    1.3733978570e-01    1.0122652344e+05
    1.3734996319e-01    1.0122650781e+05
    1.3735984266e-01    1.0122650000e+05
    1.3736970723e-01    1.0122649219e+05
    1.3737989962e-01    1.0122647656e+05
    1.3738977909e-01    1.0122646875e+05
    1.3739995658e-01    1.0122646094e+05
    1.3740983605e-01    1.0122644531e+05
    1.3741970062e-01    1.0122643750e+05
    1.3742989302e-01    1.0122641406e+05
    1.3743975759e-01    1.0122641406e+05
    1.3744994998e-01    1.0122640625e+05
    1.3745982945e-01    1.0122639844e+05
    1.3746969402e-01    1.0122638281e+05
    1.3747988641e-01    1.0122637500e+05
    1.3748975098e-01    1.0122635156e+05
    1.3749994338e-01    1.0122635156e+05
    1.3750980794e-01    1.0122634375e+05
    1.3752000034e-01    1.0122633594e+05
    1.3752987981e-01    1.0122632031e+05
    1.3753974438e-01    1.0122630469e+05
    1.3754993677e-01    1.0122628906e+05
    1.3755980134e-01    1.0122628906e+05
    1.3756999373e-01    1.0122627344e+05
    1.3757985830e-01    1.0122627344e+05
    1.3758973777e-01    1.0122625781e+05
    1.3759993017e-01    1.0122624219e+05
    1.3760979474e-01    1.0122622656e+05
    1.3761998713e-01    1.0122622656e+05
    1.3762985170e-01    1.0122621875e+05
    1.3763973117e-01    1.0122621094e+05
    1.3764990866e-01    1.0122619531e+05
    1.3765978813e-01    1.0122618750e+05
    1.3766998053e-01    1.0122616406e+05
    1.3767984509e-01    1.0122616406e+05
    1.3768972456e-01    1.0122615625e+05
    1.3769990206e-01    1.0122614844e+05
    1.3770978153e-01    1.0122613281e+05
    1.3771995902e-01    1.0122612500e+05
    1.3772983849e-01    1.0122611719e+05
    1.3773971796e-01    1.0122610156e+05
    1.3774989545e-01    1.0122609375e+05
    1.3775977492e-01    1.0122608594e+05
    1.3776995242e-01    1.0122607031e+05
    1.3777983189e-01    1.0122606250e+05
    1.3778971136e-01    1.0122605469e+05
    1.3779988885e-01    1.0122603906e+05
    1.3780976832e-01    1.0122603125e+05
    1.3781994581e-01    1.0122602344e+05
    1.3782982528e-01    1.0122602344e+05
    1.3783970475e-01    1.0122600781e+05
    1.3784988225e-01    1.0122599219e+05
    1.3785976171e-01    1.0122597656e+05
    1.3786993921e-01    1.0122597656e+05
    1.3787981868e-01    1.0122596094e+05
    1.3788969815e-01    1.0122596094e+05
    1.3789987564e-01    1.0122594531e+05
    1.3790975511e-01    1.0122593750e+05
    1.3791993260e-01    1.0122591406e+05
    1.3792981207e-01    1.0122591406e+05
    1.3793998957e-01    1.0122590625e+05
    1.3794986904e-01    1.0122589844e+05
    1.3795974851e-01    1.0122588281e+05
    1.3796992600e-01    1.0122587500e+05
    1.3797980547e-01    1.0122586719e+05
    1.3798998296e-01    1.0122585156e+05
    1.3799986243e-01    1.0122584375e+05
    1.3800972700e-01    1.0122583594e+05
    1.3801991940e-01    1.0122583594e+05
    1.3802979887e-01    1.0122582031e+05
    1.3803997636e-01    1.0122580469e+05
    1.3804985583e-01    1.0122578906e+05
    1.3805972040e-01    1.0122578906e+05
    1.3806991279e-01    1.0122578125e+05
    1.3807977736e-01    1.0122577344e+05
    1.3808996975e-01    1.0122575781e+05
    1.3809984922e-01    1.0122575000e+05
    1.3810971379e-01    1.0122574219e+05
    1.3811990619e-01    1.0122572656e+05
    1.3812977076e-01    1.0122571875e+05
    1.3813996315e-01    1.0122571094e+05
    1.3814982772e-01    1.0122571094e+05
    1.3815970719e-01    1.0122568750e+05
    1.3816989958e-01    1.0122567969e+05
    1.3817976415e-01    1.0122566406e+05
    1.3818995655e-01    1.0122566406e+05
    1.3819982111e-01    1.0122565625e+05
    1.3820970058e-01    1.0122564844e+05
    1.3821987808e-01    1.0122563281e+05
    1.3822975755e-01    1.0122562500e+05
    1.3823994994e-01    1.0122561719e+05
    1.3824981451e-01    1.0122560156e+05
    1.3825969398e-01    1.0122560156e+05
    1.3826987147e-01    1.0122558594e+05
    1.3827975094e-01    1.0122558594e+05
    1.3828992844e-01    1.0122557031e+05
    1.3829980791e-01    1.0122556250e+05
    1.3831000030e-01    1.0122555469e+05
    1.3831986487e-01    1.0122553906e+05
    1.3832974434e-01    1.0122553125e+05
    1.3833992183e-01    1.0122552344e+05
    1.3834980130e-01    1.0122552344e+05
    1.3835997880e-01    1.0122550781e+05
    1.3836985826e-01    1.0122550000e+05
    1.3837973773e-01    1.0122549219e+05
    1.3838991523e-01    1.0122547656e+05
    1.3839979470e-01    1.0122546875e+05
    1.3840997219e-01    1.0122546094e+05
    1.3841985166e-01    1.0122546094e+05
    1.3842973113e-01    1.0122544531e+05
    1.3843990862e-01    1.0122543750e+05
    1.3844978809e-01    1.0122542969e+05
    1.3845996559e-01    1.0122541406e+05
    1.3846984506e-01    1.0122540625e+05
    1.3847972453e-01    1.0122539844e+05
    1.3848990202e-01    1.0122539844e+05
    1.3849978149e-01    1.0122538281e+05
    1.3850995898e-01    1.0122537500e+05
    1.3851983845e-01    1.0122536719e+05
    1.3852971792e-01    1.0122535156e+05
    1.3853989542e-01    1.0122535156e+05
    1.3854977489e-01    1.0122534375e+05
    1.3855995238e-01    1.0122533594e+05
    1.3856983185e-01    1.0122532031e+05
    1.3857969642e-01    1.0122531250e+05
    1.3858988881e-01    1.0122530469e+05
    1.3859976828e-01    1.0122528906e+05
    1.3860994577e-01    1.0122528906e+05
    1.3861982524e-01    1.0122528125e+05
    1.3862968981e-01    1.0122527344e+05
    1.3863988221e-01    1.0122527344e+05
    1.3864974678e-01    1.0122525781e+05
    1.3865993917e-01    1.0122525000e+05
    1.3866981864e-01    1.0122524219e+05
    1.3867999613e-01    1.0122522656e+05
    1.3868987560e-01    1.0122522656e+05
    1.3869974017e-01    1.0122521875e+05
    1.3870993257e-01    1.0122521094e+05
    1.3871981204e-01    1.0122519531e+05
    1.3872998953e-01    1.0122518750e+05
    1.3873986900e-01    1.0122517969e+05
    1.3874973357e-01    1.0122516406e+05
    1.3875992596e-01    1.0122516406e+05
    1.3876979053e-01    1.0122515625e+05
    1.3877998292e-01    1.0122514844e+05
    1.3878986239e-01    1.0122514844e+05
    1.3879972696e-01    1.0122513281e+05
    1.3880991936e-01    1.0122512500e+05
    1.3881978393e-01    1.0122511719e+05
    1.3882997632e-01    1.0122510156e+05
    1.3883984089e-01    1.0122510156e+05
    1.3884972036e-01    1.0122509375e+05
    1.3885991275e-01    1.0122508594e+05
    1.3886977732e-01    1.0122508594e+05
    1.3887996972e-01    1.0122507031e+05
    1.3888983428e-01    1.0122506250e+05
    1.3889971375e-01    1.0122505469e+05
    1.3890989125e-01    1.0122503906e+05
    1.3891977072e-01    1.0122503906e+05
    1.3892996311e-01    1.0122503125e+05
    1.3893982768e-01    1.0122502344e+05
    1.3894970715e-01    1.0122502344e+05
    1.3895988464e-01    1.0122500781e+05
    1.3896976411e-01    1.0122500000e+05
    1.3897994161e-01    1.0122499219e+05
    1.3898982108e-01    1.0122497656e+05
    1.3899970055e-01    1.0122497656e+05
    1.3900987804e-01    1.0122496875e+05
    1.3901975751e-01    1.0122496094e+05
    1.3902993500e-01    1.0122496094e+05
    1.3903981447e-01    1.0122494531e+05
    1.3904999197e-01    1.0122493750e+05
    1.3905987144e-01    1.0122492969e+05
    1.3906975091e-01    1.0122491406e+05
    1.3907992840e-01    1.0122491406e+05
    1.3908980787e-01    1.0122490625e+05
    1.3909998536e-01    1.0122489844e+05
    1.3910986483e-01    1.0122489844e+05
    1.3911974430e-01    1.0122489844e+05
    1.3912992179e-01    1.0122488281e+05
    1.3913980126e-01    1.0122487500e+05
    1.3914997876e-01    1.0122486719e+05
    1.3915985823e-01    1.0122485156e+05
    1.3916973770e-01    1.0122485156e+05
    1.3917991519e-01    1.0122484375e+05
    1.3918979466e-01    1.0122483594e+05
    1.3919997215e-01    1.0122483594e+05
    1.3920985162e-01    1.0122482031e+05
    1.3921973109e-01    1.0122481250e+05
    1.3922990859e-01    1.0122480469e+05
    1.3923978806e-01    1.0122478906e+05
    1.3924996555e-01    1.0122478906e+05
    1.3925984502e-01    1.0122478125e+05
    1.3926970959e-01    1.0122477344e+05
    1.3927990198e-01    1.0122477344e+05
    1.3928978145e-01    1.0122477344e+05
    1.3929995894e-01    1.0122475781e+05
    1.3930983841e-01    1.0122475000e+05
    1.3931970298e-01    1.0122474219e+05
    1.3932989538e-01    1.0122472656e+05
    1.3933975995e-01    1.0122472656e+05
    1.3934995234e-01    1.0122471875e+05
    1.3935983181e-01    1.0122471094e+05
    1.3936969638e-01    1.0122471094e+05
    1.3937988877e-01    1.0122469531e+05
    1.3938975334e-01    1.0122468750e+05
    1.3939994574e-01    1.0122467969e+05
    1.3940981030e-01    1.0122466406e+05
    1.3941968977e-01    1.0122466406e+05
    1.3942988217e-01    1.0122464844e+05
    1.3943974674e-01    1.0122464844e+05
    1.3944993913e-01    1.0122463281e+05
    1.3945980370e-01    1.0122462500e+05
    1.3946999609e-01    1.0122461719e+05
    1.3947986066e-01    1.0122460156e+05
    1.3948974013e-01    1.0122460156e+05
    1.3949993253e-01    1.0122459375e+05
    1.3950979710e-01    1.0122458594e+05
    1.3951998949e-01    1.0122458594e+05
    1.3952985406e-01    1.0122457031e+05
    1.3953973353e-01    1.0122456250e+05
    1.3954991102e-01    1.0122453906e+05
    1.3955979049e-01    1.0122453906e+05
    1.3956998289e-01    1.0122453125e+05
    1.3957984746e-01    1.0122452344e+05
    1.3958972692e-01    1.0122452344e+05
    1.3959990442e-01    1.0122450781e+05
    1.3960978389e-01    1.0122450000e+05
    1.3961996138e-01    1.0122447656e+05
    1.3962984085e-01    1.0122447656e+05
    1.3963972032e-01    1.0122446875e+05
    1.3964989781e-01    1.0122446094e+05
    1.3965977728e-01    1.0122446094e+05
    1.3966995478e-01    1.0122443750e+05
    1.3967983425e-01    1.0122442969e+05
    1.3968971372e-01    1.0122441406e+05
    1.3969989121e-01    1.0122441406e+05
    1.3970977068e-01    1.0122440625e+05
    1.3971994817e-01    1.0122439844e+05
    1.3972982764e-01    1.0122438281e+05
    1.3973970711e-01    1.0122437500e+05
    1.3974988461e-01    1.0122436719e+05
    1.3975976408e-01    1.0122435156e+05
    1.3976994157e-01    1.0122434375e+05
    1.3977982104e-01    1.0122433594e+05
    1.3978970051e-01    1.0122433594e+05
    1.3979987800e-01    1.0122431250e+05
    1.3980975747e-01    1.0122430469e+05
    1.3981993496e-01    1.0122428906e+05
    1.3982981443e-01    1.0122428125e+05
    1.3983999193e-01    1.0122427344e+05
    1.3984987140e-01    1.0122427344e+05
    1.3985975087e-01    1.0122425781e+05
    1.3986992836e-01    1.0122424219e+05
    1.3987980783e-01    1.0122422656e+05
    1.3988998532e-01    1.0122422656e+05
    1.3989986479e-01    1.0122421094e+05
    1.3990974426e-01    1.0122421094e+05
    1.3991992176e-01    1.0122419531e+05
    1.3992980123e-01    1.0122417969e+05
    1.3993997872e-01    1.0122416406e+05
    1.3994985819e-01    1.0122416406e+05
    1.3995972276e-01    1.0122414844e+05
    1.3996991515e-01    1.0122414844e+05
    1.3997979462e-01    1.0122413281e+05
    1.3998997211e-01    1.0122411719e+05
    1.3999985158e-01    1.0122410156e+05
endcurve
