Curveplot
LS-DYNA keyword deck by LS-PrePost                          
Time
Pressure
Defined Connection
Pressure @ 13 #pts=12001
* Minval=     7.9803750000e+04 at time=         0.0188097917
* Maxval=     2.3617817188e+05 at time=         0.0077499030
    0.0000000000e+00    1.0120000000e+05
    9.9485332612e-06    1.0120000000e+05
    1.9897417587e-05    1.0120000000e+05
    2.9976828955e-05    1.0120000000e+05
    3.9981310692e-05    1.0120000000e+05
    4.9988644605e-05    1.0120000000e+05
    5.9966176195e-05    1.0120000000e+05
    6.9965921284e-05    1.0120000000e+05
    7.9989207734e-05    1.0120000000e+05
    8.9986970124e-05    1.0120000000e+05
    9.9973774923e-05    1.0120000000e+05
    1.0995307821e-04    1.0120000000e+05
    1.1998572882e-04    1.0120000000e+05
    1.2999174942e-04    1.0120000000e+05
    1.3996208145e-04    1.0120000000e+05
    1.4996068785e-04    1.0120000000e+05
    1.5998182062e-04    1.0120000000e+05
    1.6994464386e-04    1.0120000000e+05
    1.7999326519e-04    1.0120000000e+05
    1.8996893778e-04    1.0120000000e+05
    1.9994117611e-04    1.0120000000e+05
    2.0998436958e-04    1.0120000000e+05
    2.1993234986e-04    1.0120000000e+05
    2.2994031315e-04    1.0120000000e+05
    2.3992185015e-04    1.0120000000e+05
    2.4995493004e-04    1.0120000000e+05
    2.5995058240e-04    1.0120000000e+05
    2.6998962858e-04    1.0120000000e+05
    2.7998033329e-04    1.0120000000e+05
    2.8991597355e-04    1.0120000000e+05
    2.9997000820e-04    1.0120000000e+05
    3.0995914130e-04    1.0120000000e+05
    3.1997085898e-04    1.0120000000e+05
    3.2999989344e-04    1.0120000000e+05
    3.3994449768e-04    1.0120000000e+05
    3.4998939373e-04    1.0120000000e+05
    3.5993172787e-04    1.0120000000e+05
    3.6995732808e-04    1.0120000000e+05
    3.7997288746e-04    1.0120000000e+05
    3.8997511729e-04    1.0120000000e+05
    3.9996235864e-04    1.0120000000e+05
    4.0993117727e-04    1.0120000000e+05
    4.1998419329e-04    1.0120000000e+05
    4.2991703958e-04    1.0120000000e+05
    4.3993067811e-04    1.0120000000e+05
    4.4992085896e-04    1.0120000000e+05
    4.5999381109e-04    1.0120000000e+05
    4.6993847354e-04    1.0120000000e+05
    4.7996253124e-04    1.0120000000e+05
    4.8995844554e-04    1.0120000000e+05
    4.9992633285e-04    1.0120000000e+05
    5.0997501239e-04    1.0120000000e+05
    5.1999429706e-04    1.0120000000e+05
    5.2998261526e-04    1.0120000000e+05
    5.3993629990e-04    1.0120000000e+05
    5.4996961262e-04    1.0120000000e+05
    5.5996875744e-04    1.0120000000e+05
    5.6993204635e-04    1.0120000000e+05
    5.7997222757e-04    1.0120000000e+05
    5.8997265296e-04    1.0120000000e+05
    5.9993582545e-04    1.0120000000e+05
    6.0997501714e-04    1.0120000000e+05
    6.1997323064e-04    1.0120000000e+05
    6.2992860330e-04    1.0120000000e+05
    6.3995702658e-04    1.0120000000e+05
    6.4994319109e-04    1.0120000000e+05
    6.5988313872e-04    1.0120000000e+05
    6.6989747575e-04    1.0120000000e+05
    6.7998736631e-04    1.0120000000e+05
    6.8990472937e-04    1.0120000000e+05
    6.9989322219e-04    1.0120000000e+05
    7.0995884016e-04    1.0120000000e+05
    7.1997271152e-04    1.0120000000e+05
    7.2993314825e-04    1.0120000000e+05
    7.3996721767e-04    1.0120000000e+05
    7.4994587339e-04    1.0120000000e+05
    7.5999548426e-04    1.0120000000e+05
    7.6999037992e-04    1.0120000000e+05
    7.7992584556e-04    1.0120000000e+05
    7.8993395437e-04    1.0120000000e+05
    7.9988059588e-04    1.0120000000e+05
    8.0989964772e-04    1.0120000000e+05
    8.1999204122e-04    1.0120000000e+05
    8.2987983478e-04    1.0120000000e+05
    8.3998066839e-04    1.0120000000e+05
    8.4987579612e-04    1.0120000000e+05
    8.5998268332e-04    1.0120000000e+05
    8.6987955729e-04    1.0120000000e+05
    8.7998999516e-04    1.0120000000e+05
    8.8988599600e-04    1.0120000000e+05
    8.9999457123e-04    1.0120000000e+05
    9.0988265583e-04    1.0120000000e+05
    9.1999192955e-04    1.0120000000e+05
    9.2987780226e-04    1.0120000000e+05
    9.3998224474e-04    1.0120000000e+05
    9.4985874603e-04    1.0120000000e+05
    9.5995533047e-04    1.0120000000e+05
    9.6997158835e-04    1.0120000000e+05
    9.7990513314e-04    1.0120000000e+05
    9.8990439437e-04    1.0120000000e+05
    9.9997629877e-04    1.0120000000e+05
    1.0099632200e-03    1.0120000000e+05
    1.0198618984e-03    1.0120000000e+05
    1.0299872374e-03    1.0120000000e+05
    1.0398640297e-03    1.0120000000e+05
    1.0499688797e-03    1.0120000000e+05
    1.0599821107e-03    1.0120000000e+05
    1.0699009290e-03    1.0120000000e+05
    1.0798871517e-03    1.0120000000e+05
    1.0899413610e-03    1.0120000000e+05
    1.0998978978e-03    1.0120000000e+05
    1.1099163676e-03    1.0120000000e+05
    1.1198392604e-03    1.0120000000e+05
    1.1299984762e-03    1.0120000000e+05
    1.1398849310e-03    1.0120000000e+05
    1.1498366948e-03    1.0120000000e+05
    1.1598545825e-03    1.0120000000e+05
    1.1699392926e-03    1.0120000000e+05
    1.1799157364e-03    1.0120000000e+05
    1.1899580713e-03    1.0120000000e+05
    1.1998889968e-03    1.0120000000e+05
    1.2098847656e-03    1.0120000000e+05
    1.2199459597e-03    1.0120000000e+05
    1.2298919028e-03    1.0120000000e+05
    1.2399023399e-03    1.0120000000e+05
    1.2499759905e-03    1.0120000000e+05
    1.2599268230e-03    1.0120000000e+05
    1.2699472718e-03    1.0120000000e+05
    1.2798451353e-03    1.0120000000e+05
    1.2899945723e-03    1.0120000000e+05
    1.2998303864e-03    1.0120000000e+05
    1.3099190546e-03    1.0120000000e+05
    1.3198805973e-03    1.0120000000e+05
    1.3299051207e-03    1.0120000000e+05
    1.3399934396e-03    1.0120000000e+05
    1.3499504421e-03    1.0120000000e+05
    1.3599703088e-03    1.0120000000e+05
    1.3698550174e-03    1.0120000000e+05
    1.3798014261e-03    1.0120000000e+05
    1.3898100005e-03    1.0120000000e+05
    1.3998814393e-03    1.0120000000e+05
    1.4098132960e-03    1.0120000000e+05
    1.4198068529e-03    1.0120000000e+05
    1.4298628084e-03    1.0120000000e+05
    1.4399819775e-03    1.0120000000e+05
    1.4499566751e-03    1.0120000000e+05
    1.4599933056e-03    1.0120000000e+05
    1.4698811574e-03    1.0120000000e+05
    1.4798301272e-03    1.0120000000e+05
    1.4898331137e-03    1.0120000000e+05
    1.4998955885e-03    1.0120000000e+05
    1.5098070726e-03    1.0120000000e+05
    1.5199938789e-03    1.0120000000e+05
    1.5298107173e-03    1.0120000000e+05
    1.5399040421e-03    1.0120000000e+05
    1.5498383436e-03    1.0120000000e+05
    1.5598374885e-03    1.0120000000e+05
    1.5699029900e-03    1.0120000000e+05
    1.5798066743e-03    1.0120000000e+05
    1.5899974387e-03    1.0120000000e+05
    1.5997947194e-03    1.0120000000e+05
    1.6098816413e-03    1.0120000000e+05
    1.6197987134e-03    1.0120000000e+05
    1.6297765542e-03    1.0120000000e+05
    1.6398163280e-03    1.0120000000e+05
    1.6499165213e-03    1.0120000000e+05
    1.6598420916e-03    1.0120000000e+05
    1.6698279651e-03    1.0120000000e+05
    1.6798751894e-03    1.0120000000e+05
    1.6899839975e-03    1.0120000000e+05
    1.6999124782e-03    1.0120000000e+05
    1.7099023098e-03    1.0120000000e+05
    1.7199539579e-03    1.0120000000e+05
    1.7298187595e-03    1.0120000000e+05
    1.7399926437e-03    1.0120000000e+05
    1.7499793321e-03    1.0120000000e+05
    1.7597754486e-03    1.0120000000e+05
    1.7698830925e-03    1.0120000000e+05
    1.7797991168e-03    1.0120000000e+05
    1.7897733487e-03    1.0120000000e+05
    1.7998040421e-03    1.0120000000e+05
    1.8098925939e-03    1.0120000000e+05
    1.8197827740e-03    1.0120000000e+05
    1.8299996154e-03    1.0120000000e+05
    1.8397477688e-03    1.0120000000e+05
    1.8498223508e-03    1.0120000000e+05
    1.8599584000e-03    1.0120000000e+05
    1.8698876956e-03    1.0120000000e+05
    1.8798867241e-03    1.0120000000e+05
    1.8899478018e-03    1.0120000000e+05
    1.8997966545e-03    1.0120000000e+05
    1.9099817146e-03    1.0120000000e+05
    1.9199524540e-03    1.0120000000e+05
    1.9299850101e-03    1.0120000000e+05
    1.9397985889e-03    1.0120000000e+05
    1.9499546615e-03    1.0120000000e+05
    1.9598896615e-03    1.0120000000e+05
    1.9698860124e-03    1.0120000000e+05
    1.9799442962e-03    1.0120000000e+05
    1.9897755701e-03    1.0120000000e+05
    1.9999584183e-03    1.0120000000e+05
    2.0099123940e-03    1.0120000000e+05
    2.0199283026e-03    1.0120000000e+05
    2.0297092851e-03    1.0120000000e+05
    2.0398490597e-03    1.0120000000e+05
    2.0497525111e-03    1.0120000000e+05
    2.0597171970e-03    1.0120000000e+05
    2.0697440486e-03    1.0120000000e+05
    2.0798344631e-03    1.0120000000e+05
    2.0899886731e-03    1.0120000000e+05
    2.0998970140e-03    1.0120000000e+05
    2.1098677535e-03    1.0120000000e+05
    2.1199011244e-03    1.0120000000e+05
    2.1299941000e-03    1.0120000000e+05
    2.1398330573e-03    1.0120000000e+05
    2.1497381385e-03    1.0120000000e+05
    2.1597056184e-03    1.0120000000e+05
    2.1697361954e-03    1.0120000000e+05
    2.1798312664e-03    1.0120000000e+05
    2.1899915300e-03    1.0120000000e+05
    2.1998870652e-03    1.0120000000e+05
    2.2098456975e-03    1.0120000000e+05
    2.2198681254e-03    1.0120000000e+05
    2.2299555130e-03    1.0120000000e+05
    2.2397688590e-03    1.0120000000e+05
    2.2499866318e-03    1.0120000000e+05
    2.2599282674e-03    1.0120000000e+05
    2.2699341644e-03    1.0120000000e+05
    2.2796569392e-03    1.0120000000e+05
    2.2897922900e-03    1.0120000000e+05
    2.2999949288e-03    1.0120000000e+05
    2.3099090904e-03    1.0120000000e+05
    2.3198851850e-03    1.0120000000e+05
    2.3299315944e-03    1.0120000000e+05
    2.3396823090e-03    1.0120000000e+05
    2.3498609662e-03    1.0120000000e+05
    2.3597416002e-03    1.0120000000e+05
    2.3696871940e-03    1.0120000000e+05
    2.3796991445e-03    1.0120000000e+05
    2.3897781502e-03    1.0120000000e+05
    2.3999258410e-03    1.0120000000e+05
    2.4097634014e-03    1.0120000000e+05
    2.4196663871e-03    1.0120000000e+05
    2.4296359625e-03    1.0120000000e+05
    2.4396732915e-03    1.0120000000e+05
    2.4497795384e-03    1.0120000000e+05
    2.4599537719e-03    1.0120000000e+05
    2.4698027410e-03    1.0120000000e+05
    2.4797215592e-03    1.0120000000e+05
    2.4897085968e-03    1.0120000000e+05
    2.4997650180e-03    1.0120000000e+05
    2.5098919868e-03    1.0120000000e+05
    2.5196811184e-03    1.0120000000e+05
    2.5299498811e-03    1.0120000000e+05
    2.5398777798e-03    1.0120000000e+05
    2.5498750620e-03    1.0120000000e+05
    2.5599435903e-03    1.0120000000e+05
    2.5696603116e-03    1.0120000000e+05
    2.5798664428e-03    1.0120000000e+05
    2.5897184387e-03    1.0120000000e+05
    2.5996428449e-03    1.0120000000e+05
    2.6096212678e-03    1.0120000000e+05
    2.6196406689e-03    1.0120000000e+05
    2.6296952274e-03    1.0120000000e+05
    2.6397809852e-03    1.0120000000e+05
    2.6499025989e-03    1.0120000000e+05
    2.6595976669e-03    1.0120000000e+05
    2.6697709691e-03    1.0120000000e+05
    2.6799335610e-03    1.0120000000e+05
    2.6896686759e-03    1.0120000000e+05
    2.6998950634e-03    1.0120000000e+05
    2.7096453123e-03    1.0120000000e+05
    2.7198591270e-03    1.0120000000e+05
    2.7296107728e-03    1.0120000000e+05
    2.7398231905e-03    1.0120000000e+05
    2.7495643590e-03    1.0120000000e+05
    2.7597558219e-03    1.0120000000e+05
    2.7699531056e-03    1.0120000000e+05
    2.7797194198e-03    1.0120000000e+05
    2.7899043635e-03    1.0120000000e+05
    2.7996515855e-03    1.0120000000e+05
    2.8098428156e-03    1.0120000000e+05
    2.8195818886e-03    1.0120000000e+05
    2.8297461104e-03    1.0120000000e+05
    2.8399094008e-03    1.0120000000e+05
    2.8496508021e-03    1.0120000000e+05
    2.8598196805e-03    1.0120000000e+05
    2.8699960094e-03    1.0120000000e+05
    2.8796729166e-03    1.0120000000e+05
    2.8898222372e-03    1.0120000000e+05
    2.8999957722e-03    1.0120000000e+05
    2.9096771032e-03    1.0120000000e+05
    2.9198108241e-03    1.0120000000e+05
    2.9299911112e-03    1.0120000000e+05
    2.9397334438e-03    1.0120000000e+05
    2.9499612283e-03    1.0120000000e+05
    2.9597538523e-03    1.0120000000e+05
    2.9699984007e-03    1.0120000000e+05
    2.9797919560e-03    1.0120000000e+05
    2.9896295164e-03    1.0120000000e+05
    2.9999073595e-03    1.0120000000e+05
    3.0097796116e-03    1.0120000000e+05
    3.0196434818e-03    1.0120000000e+05
    3.0299704522e-03    1.0120000000e+05
    3.0398690142e-03    1.0120000000e+05
    3.0497794505e-03    1.0120000000e+05
    3.0596903525e-03    1.0120000000e+05
    3.0696091708e-03    1.0120000000e+05
    3.0799915548e-03    1.0120000000e+05
    3.0898938421e-03    1.0120000000e+05
    3.0997954309e-03    1.0120000000e+05
    3.1096916646e-03    1.0120000000e+05
    3.1195846386e-03    1.0120000000e+05
    3.1298880931e-03    1.0120000000e+05
    3.1397307757e-03    1.0120000000e+05
    3.1499904580e-03    1.0120000000e+05
    3.1597788911e-03    1.0120000000e+05
    3.1699701212e-03    1.0120000000e+05
    3.1796807889e-03    1.0120000000e+05
    3.1897833105e-03    1.0120000000e+05
    3.1998264603e-03    1.0120000000e+05
    3.2098055817e-03    1.0120000000e+05
    3.2197309192e-03    1.0120000000e+05
    3.2295987476e-03    1.0120000000e+05
    3.2398346812e-03    1.0120000000e+05
    3.2495863270e-03    1.0120000000e+05
    3.2597028185e-03    1.0120000000e+05
    3.2697592396e-03    1.0120000000e+05
    3.2797544263e-03    1.0120000000e+05
    3.2896930352e-03    1.0120000000e+05
    3.2999841496e-03    1.0120000000e+05
    3.3098051790e-03    1.0120000000e+05
    3.3199752215e-03    1.0120000000e+05
    3.3296809997e-03    1.0120000000e+05
    3.3397322986e-03    1.0120000000e+05
    3.3497223631e-03    1.0120000000e+05
    3.3596542198e-03    1.0120000000e+05
    3.3699225169e-03    1.0120000000e+05
    3.3797365613e-03    1.0120000000e+05
    3.3898826223e-03    1.0120000000e+05
    3.3999672160e-03    1.0120000000e+05
    3.4099912737e-03    1.0120000000e+05
    3.4199550282e-03    1.0120000000e+05
    3.4298570827e-03    1.0120000000e+05
    3.4397020936e-03    1.0120000000e+05
    3.4498637542e-03    1.0120000000e+05
    3.4599632490e-03    1.0120000000e+05
    3.4696296789e-03    1.0120000000e+05
    3.4799762070e-03    1.0120000000e+05
    3.4898861777e-03    1.0120000000e+05
    3.4997405019e-03    1.0120000000e+05
    3.5098961089e-03    1.0120000000e+05
    3.5199879203e-03    1.0120000000e+05
    3.5296587739e-03    1.0120000000e+05
    3.5399808548e-03    1.0120000000e+05
    3.5498808138e-03    1.0120000000e+05
    3.5597200040e-03    1.0120000000e+05
    3.5698460415e-03    1.0120000000e+05
    3.5799064208e-03    1.0120000000e+05
    3.5899016075e-03    1.0120000000e+05
    3.5998313688e-03    1.0120000000e+05
    3.6096973345e-03    1.0120000000e+05
    3.6198352464e-03    1.0120000000e+05
    3.6299049389e-03    1.0120000000e+05
    3.6399066448e-03    1.0120000000e+05
    3.6498408299e-03    1.0120000000e+05
    3.6597079597e-03    1.0120000000e+05
    3.6698337644e-03    1.0120000000e+05
    3.6798885558e-03    1.0120000000e+05
    3.6898725666e-03    1.0120000000e+05
    3.6997860298e-03    1.0120000000e+05
    3.7099455949e-03    1.0120000000e+05
    3.7197167985e-03    1.0120000000e+05
    3.7297303788e-03    1.0120000000e+05
    3.7399793509e-03    1.0120000000e+05
    3.7498429883e-03    1.0120000000e+05
    3.7599378265e-03    1.0120000000e+05
    3.7699546665e-03    1.0120000000e+05
    3.7798935082e-03    1.0120000000e+05
    3.7897550501e-03    1.0120000000e+05
    3.7998345215e-03    1.0120000000e+05
    3.8098320365e-03    1.0120000000e+05
    3.8197475951e-03    1.0120000000e+05
    3.8298692089e-03    1.0120000000e+05
    3.8399037439e-03    1.0120000000e+05
    3.8498514332e-03    1.0120000000e+05
    3.8599930704e-03    1.0120000000e+05
    3.8697652053e-03    1.0120000000e+05
    3.8797261659e-03    1.0120000000e+05
    3.8898678031e-03    1.0120000000e+05
    3.8999116514e-03    1.0120000000e+05
    3.9098579437e-03    1.0120000000e+05
    3.9199711755e-03    1.0120000000e+05
    3.9299814962e-03    1.0120000000e+05
    3.9398875087e-03    1.0120000000e+05
    3.9499457926e-03    1.0120000000e+05
    3.9598927833e-03    1.0120000000e+05
    3.9699804038e-03    1.0120000000e+05
    3.9799497463e-03    1.0120000000e+05
    3.9898008108e-03    1.0120000000e+05
    3.9997748099e-03    1.0120000000e+05
    4.0098605677e-03    1.0120000000e+05
    4.0198122151e-03    1.0120000000e+05
    4.0298607200e-03    1.0120000000e+05
    4.0399944410e-03    1.0120000000e+05
    4.0499758907e-03    1.0120000000e+05
    4.0598032065e-03    1.0120000000e+05
    4.0699094534e-03    1.0120000000e+05
    4.0798415430e-03    1.0120000000e+05
    4.0898062289e-03    1.0120000000e+05
    4.0999935009e-03    1.0120000000e+05
    4.1099707596e-03    1.0120000000e+05
    4.1199289262e-03    1.0120000000e+05
    4.1298479773e-03    1.0120000000e+05
    4.1398932226e-03    1.0120000000e+05
    4.1498420760e-03    1.0120000000e+05
    4.1598416865e-03    1.0120000000e+05
    4.1698408313e-03    1.0120000000e+05
    4.1799419560e-03    1.0120000000e+05
    4.1898963973e-03    1.0120000000e+05
    4.1999053210e-03    1.0120000000e+05
    4.2099244893e-03    1.0120000000e+05
    4.2199073359e-03    1.0120000000e+05
    4.2299753986e-03    1.0120000000e+05
    4.2399908416e-03    1.0120000000e+05
    4.2499485426e-03    1.0120000000e+05
    4.2599956505e-03    1.0120000000e+05
    4.2698672041e-03    1.0120000000e+05
    4.2799287476e-03    1.0120000000e+05
    4.2899660766e-03    1.0120000000e+05
    4.2998990975e-03    1.0120000000e+05
    4.3098893948e-03    1.0120000000e+05
    4.3199863285e-03    1.0120000000e+05
    4.3298862875e-03    1.0120000000e+05
    4.3399403803e-03    1.0120000000e+05
    4.3499665335e-03    1.0120000000e+05
    4.3599531054e-03    1.0120000000e+05
    4.3698465452e-03    1.0120000000e+05
    4.3798643164e-03    1.0120000000e+05
    4.3899794109e-03    1.0120000000e+05
    4.3998318724e-03    1.0120000000e+05
    4.4099381194e-03    1.0120000000e+05
    4.4199591503e-03    1.0120000000e+05
    4.4298572466e-03    1.0120000000e+05
    4.4398354366e-03    1.0120000000e+05
    4.4498718344e-03    1.0120000000e+05
    4.4599822722e-03    1.0120000000e+05
    4.4699576683e-03    1.0120000000e+05
    4.4798217714e-03    1.0120000000e+05
    4.4898996130e-03    1.0120000000e+05
    4.4998773374e-03    1.0120000000e+05
    4.5098755509e-03    1.0120000000e+05
    4.5199445449e-03    1.0120000000e+05
    4.5298528858e-03    1.0120000000e+05
    4.5398310758e-03    1.0120000000e+05
    4.5498227701e-03    1.0120000000e+05
    4.5598843135e-03    1.0120000000e+05
    4.5699779876e-03    1.0120000000e+05
    4.5799263753e-03    1.0120000000e+05
    4.5899050310e-03    1.0120000000e+05
    4.5999195427e-03    1.0120000000e+05
    4.6099945903e-03    1.0120000000e+05
    4.6198773198e-03    1.0120000000e+05
    4.6298359521e-03    1.0120000000e+05
    4.6399878338e-03    1.0120000000e+05
    4.6498165466e-03    1.0120000000e+05
    4.6598352492e-03    1.0120000000e+05
    4.6699307859e-03    1.0120000000e+05
    4.6798228286e-03    1.0120000000e+05
    4.6899779700e-03    1.0120000000e+05
    4.6999622136e-03    1.0120000000e+05
    4.7099427320e-03    1.0120000000e+05
    4.7198184766e-03    1.0120000000e+05
    4.7298418358e-03    1.0120000000e+05
    4.7399951145e-03    1.0120000000e+05
    4.7498834319e-03    1.0120000000e+05
    4.7598518431e-03    1.0120000000e+05
    4.7698426060e-03    1.0120000000e+05
    4.7798412852e-03    1.0120000000e+05
    4.7899186611e-03    1.0120000000e+05
    4.7999783419e-03    1.0120000000e+05
    4.8099011183e-03    1.0120000000e+05
    4.8198238946e-03    1.0120000000e+05
    4.8297932371e-03    1.0120000000e+05
    4.8397928476e-03    1.0120000000e+05
    4.8498148099e-03    1.0120000000e+05
    4.8598758876e-03    1.0120000000e+05
    4.8699611798e-03    1.0120000000e+05
    4.8798546195e-03    1.0120000000e+05
    4.8897792585e-03    1.0120000000e+05
    4.8999465071e-03    1.0120000000e+05
    4.9099233001e-03    1.0120000000e+05
    4.9199261703e-03    1.0120000000e+05
    4.9299467355e-03    1.0120000000e+05
    4.9397768453e-03    1.0120000000e+05
    4.9498453736e-03    1.0120000000e+05
    4.9599464983e-03    1.0120000000e+05
    4.9698394723e-03    1.0120000000e+05
    4.9799806438e-03    1.0120000000e+05
    4.9899220467e-03    1.0120000000e+05
    4.9998722970e-03    1.0120000000e+05
    5.0098551437e-03    1.0120000000e+05
    5.0198538229e-03    1.0120000000e+05
    5.0298669375e-03    1.0120000000e+05
    5.0399070606e-03    1.0120000000e+05
    5.0499574281e-03    1.0120000000e+05
    5.0598029047e-03    1.0120000000e+05
    5.0698919222e-03    1.0120000000e+05
    5.0799944438e-03    1.0120000000e+05
    5.0898878835e-03    1.0120000000e+05
    5.0997938961e-03    1.0120000000e+05
    5.1099448465e-03    1.0120000000e+05
    5.1198801957e-03    1.0120000000e+05
    5.1298309118e-03    1.0120000000e+05
    5.1397890784e-03    1.0120000000e+05
    5.1497672684e-03    1.0120000000e+05
    5.1599838771e-03    1.0120000000e+05
    5.1699811593e-03    1.0120000000e+05
    5.1799914800e-03    1.0120000000e+05
    5.1897750236e-03    1.0120000000e+05
    5.1998016424e-03    1.0120000000e+05
    5.2098375745e-03    1.0120000000e+05
    5.2198818885e-03    1.0120000000e+05
    5.2299285308e-03    1.0120000000e+05
    5.2399868146e-03    1.0120000000e+05
    5.2498127334e-03    1.0120000000e+05
    5.2598770708e-03    1.0120000000e+05
    5.2699428052e-03    1.0120000000e+05
    5.2797743119e-03    1.0120000000e+05
    5.2898409776e-03    1.0120000000e+05
    5.2999076433e-03    1.0120000000e+05
    5.3099743091e-03    1.0120000000e+05
    5.3198076785e-03    1.0120000000e+05
    5.3298752755e-03    1.0120000000e+05
    5.3399433382e-03    1.0120000000e+05
    5.3497771733e-03    1.0120000000e+05
    5.3598447703e-03    1.0120000000e+05
    5.3699128330e-03    1.0120000000e+05
    5.3799799643e-03    1.0120000000e+05
    5.3898133337e-03    1.0120000000e+05
    5.3998799995e-03    1.0120000000e+05
    5.4099466652e-03    1.0120000000e+05
    5.4197786376e-03    1.0120000000e+05
    5.4298443720e-03    1.0120000000e+05
    5.4399096407e-03    1.0120000000e+05
    5.4499744438e-03    1.0120000000e+05
    5.4598045535e-03    1.0120000000e+05
    5.4698679596e-03    1.0120000000e+05
    5.4799313657e-03    1.0120000000e+05
    5.4899924435e-03    1.0120000000e+05
    5.4998188280e-03    1.0120000000e+05
    5.5098799057e-03    1.0120000000e+05
    5.5199391209e-03    1.0120000000e+05
    5.5299941450e-03    1.0120000000e+05
    5.5398200639e-03    1.0120000000e+05
    5.5498834699e-03    1.0120000000e+05
    5.5599370971e-03    1.0120000000e+05
    5.5699981749e-03    1.0120000000e+05
    5.5798445828e-03    1.0120000000e+05
    5.5899149738e-03    1.0120000000e+05
    5.5999848992e-03    1.0120000000e+05
    5.6098471396e-03    1.0120000000e+05
    5.6199422106e-03    1.0120000000e+05
    5.6297951378e-03    1.0120000000e+05
    5.6399027817e-03    1.0120000000e+05
    5.6497920305e-03    1.0120000000e+05
    5.6599006057e-03    1.0120000000e+05
    5.6697903201e-03    1.0120000000e+05
    5.6799380109e-03    1.0120000000e+05
    5.6898407638e-03    1.0120000000e+05
    5.6999796070e-03    1.0120000000e+05
    5.7099116966e-03    1.0120000000e+05
    5.7198461145e-03    1.0120000000e+05
    5.7297702879e-03    1.0120000000e+05
    5.7399473153e-03    1.0120000000e+05
    5.7499073446e-03    1.0120000000e+05
    5.7598631829e-03    1.0120000000e+05
    5.7698185556e-03    1.0120000000e+05
    5.7797925547e-03    1.0120000000e+05
    5.7897758670e-03    1.0120000000e+05
    5.7999971323e-03    1.0120000000e+05
    5.8099874295e-03    1.0120000000e+05
    5.8199893683e-03    1.0120000000e+05
    5.8299978264e-03    1.0120000000e+05
    5.8397753164e-03    1.0120000000e+05
    5.8497944847e-03    1.0120000000e+05
    5.8598187752e-03    1.0120000000e+05
    5.8698556386e-03    1.0120000000e+05
    5.8798994869e-03    1.0120000000e+05
    5.8899456635e-03    1.0120000000e+05
    5.8999950998e-03    1.0120000000e+05
    5.9098177589e-03    1.0120000000e+05
    5.9198881499e-03    1.0120000000e+05
    5.9299604036e-03    1.0120000000e+05
    5.9397947043e-03    1.0120000000e+05
    5.9498837218e-03    1.0120000000e+05
    5.9599797241e-03    1.0120000000e+05
    5.9698345140e-03    1.0120000000e+05
    5.9799342416e-03    1.0120000000e+05
    5.9898016043e-03    1.0120000000e+05
    5.9999208897e-03    1.0120000000e+05
    6.0097984970e-03    1.0120000000e+05
    6.0199219733e-03    1.0120000000e+05
    6.0298144817e-03    1.0120000000e+05
    6.0399579816e-03    1.0120000000e+05
    6.0498639941e-03    1.0120000000e+05
    6.0597676784e-03    1.0120000000e+05
    6.0699228197e-03    1.0120000000e+05
    6.0798441991e-03    1.0120000000e+05
    6.0897711664e-03    1.0120000000e+05
    6.0999356210e-03    1.0120000000e+05
    6.1098681763e-03    1.0120000000e+05
    6.1198091134e-03    1.0120000000e+05
    6.1297588982e-03    1.0120000000e+05
    6.1399494298e-03    1.0120000000e+05
    6.1498987488e-03    1.0120000000e+05
    6.1598634347e-03    1.0120000000e+05
    6.1698295176e-03    1.0120000000e+05
    6.1798016541e-03    1.0120000000e+05
    6.1897695996e-03    1.0120000000e+05
    6.1999913305e-03    1.0120000000e+05
    6.2099788338e-03    1.0120000000e+05
    6.2199654058e-03    1.0120000000e+05
    6.2299561687e-03    1.0120000000e+05
    6.2399464659e-03    1.0120000000e+05
    6.2499553896e-03    1.0120000000e+05
    6.2599587254e-03    1.0120000000e+05
    6.2699690461e-03    1.0120000000e+05
    6.2799775042e-03    1.0120000000e+05
    6.2899994664e-03    1.0120000000e+05
    6.2997792847e-03    1.0120000000e+05
    6.3098031096e-03    1.0120000000e+05
    6.3198367134e-03    1.0120000000e+05
    6.3298698515e-03    1.0120000000e+05
    6.3399164937e-03    1.0120000000e+05
    6.3499510288e-03    1.0120000000e+05
    6.3599986024e-03    1.0120000000e+05
    6.3698049635e-03    1.0120000000e+05
    6.3798632473e-03    1.0120000000e+05
    6.3899266534e-03    1.0120000000e+05
    6.3999765553e-03    1.0120000000e+05
    6.4098024741e-03    1.0120000000e+05
    6.4198705368e-03    1.0120000000e+05
    6.4299507067e-03    1.0120000000e+05
    6.4397794195e-03    1.0120000000e+05
    6.4498516731e-03    1.0120000000e+05
    6.4599406905e-03    1.0120000000e+05
    6.4697768539e-03    1.0120000000e+05
    6.4798719250e-03    1.0120000000e+05
    6.4899590798e-03    1.0120000000e+05
    6.4998138696e-03    1.0120000000e+05
    6.5099187195e-03    1.0120000000e+05
    6.5197749063e-03    1.0120000000e+05
    6.5298764966e-03    1.0120000000e+05
    6.5399738960e-03    1.0120000000e+05
    6.5498487093e-03    1.0120000000e+05
    6.5599768423e-03    1.0120000000e+05
    6.5698581748e-03    1.0120000000e+05
    6.5799839795e-03    1.0120000000e+05
    6.5898592584e-03    1.0120000000e+05
    6.5999836661e-03    1.0120000000e+05
    6.6098649986e-03    1.0120000000e+05
    6.6199996509e-03    1.0120000000e+05
    6.6298884340e-03    1.0120000000e+05
    6.6397744231e-03    1.0120000000e+05
    6.6499053501e-03    1.0120000000e+05
    6.6597880796e-03    1.0120000000e+05
    6.6699152812e-03    1.0120000000e+05
    6.6797970794e-03    1.0120000000e+05
    6.6899363883e-03    1.0120000000e+05
    6.6998335533e-03    1.0120000000e+05
    6.7099756561e-03    1.0120000000e+05
    6.7198681645e-03    1.0120000000e+05
    6.7297592759e-03    1.0120000000e+05
    6.7398967221e-03    1.0120000000e+05
    6.7497869022e-03    1.0120000000e+05
    6.7599234171e-03    1.0120000000e+05
    6.7698135972e-03    1.0120000000e+05
    6.7799519747e-03    1.0120000000e+05
    6.7898454145e-03    1.0120000000e+05
    6.7999884486e-03    1.0120000000e+05
    6.8098865449e-03    1.0120000000e+05
    6.8197846413e-03    1.0120000000e+05
    6.8299290724e-03    1.0120000000e+05
    6.8398243748e-03    1.0120000000e+05
    6.8499664776e-03    1.0120000000e+05
    6.8598603830e-03    1.0120000000e+05
    6.8697547540e-03    1.0120000000e+05
    6.8798963912e-03    1.0120000000e+05
    6.8897902966e-03    1.0120000000e+05
    6.8999319337e-03    1.0120000000e+05
    6.9098253734e-03    1.0120000000e+05
    6.9199665450e-03    1.0120000000e+05
    6.9298595190e-03    1.0120000000e+05
    6.9397529587e-03    1.0120000000e+05
    6.9498931989e-03    1.0120000000e+05
    6.9597857073e-03    1.0120000000e+05
    6.9699254818e-03    1.0120000000e+05
    6.9798175246e-03    1.0120000000e+05
    6.9899568334e-03    1.0120000000e+05
    6.9998488761e-03    1.0120000000e+05
    7.0099881850e-03    1.0120000000e+05
    7.0198806934e-03    1.0120000000e+05
    7.0297741331e-03    1.0120000000e+05
    7.0399157703e-03    1.0120000000e+05
    7.0498096757e-03    1.0120000000e+05
    7.0599499159e-03    1.0120000000e+05
    7.0698414929e-03    1.0120000000e+05
    7.0799794048e-03    1.0120000000e+05
    7.0898695849e-03    1.0120000000e+05
    7.0997592993e-03    1.0120000000e+05
    7.1098958142e-03    1.0120000000e+05
    7.1197873913e-03    1.0120000000e+05
    7.1299280971e-03    1.0120000000e+05
    7.1398215368e-03    1.0120000000e+05
    7.1499627084e-03    1.0120000000e+05
    7.1598570794e-03    1.0120000000e+05
    7.1699987166e-03    1.0120000000e+05
    7.1798921563e-03    1.0120000000e+05
    7.1897837333e-03    1.0120000000e+05
    7.1999225765e-03    1.0120000000e+05
    7.2098132223e-03    1.0120000000e+05
    7.2199502029e-03    1.0120000000e+05
    7.2298441082e-03    1.0120000000e+05
    7.2399904020e-03    1.0120000000e+05
    7.2498884983e-03    1.0120000000e+05
    7.2597847320e-03    1.0120000000e+05
    7.2699277662e-03    1.0120000000e+05
    7.2798230685e-03    1.0120000000e+05
    7.2899656370e-03    1.0120000000e+05
    7.2998641990e-03    1.0120000000e+05
    7.3097655550e-03    1.0120000000e+05
    7.3199137114e-03    1.0120000000e+05
    7.3298127390e-03    1.0120000000e+05
    7.3399590328e-03    1.0120000000e+05
    7.3498571292e-03    1.0120000000e+05
    7.3597566225e-03    1.0120000000e+05
    7.3699085042e-03    1.0120000000e+05
    7.3798117228e-03    1.0120000000e+05
    7.3899612762e-03    1.0120000000e+05
    7.3998630978e-03    1.0120000000e+05
    7.4097644538e-03    1.0120000000e+05
    7.4199177325e-03    1.0120000000e+05
    7.4298242107e-03    1.0120000000e+05
    7.4399770238e-03    1.0120000000e+05
    7.4498816393e-03    1.0120000000e+05
    7.4597857893e-03    1.0120000000e+05
    7.4699404649e-03    1.0120000000e+05
    7.4798492715e-03    1.0120000000e+05
    7.4897566810e-03    1.0120000000e+05
    7.4999118224e-03    1.0120000000e+05
    7.5098183006e-03    1.0120000000e+05
    7.5199757703e-03    1.0120000000e+05
    7.5298855081e-03    1.0120000000e+05
    7.5397943147e-03    1.0120000000e+05
    7.5499508530e-03    1.0120000000e+05
    7.5598596595e-03    1.0120000000e+05
    7.5697707944e-03    1.0120000000e+05
    7.5799291953e-03    1.0120000000e+05
    7.5898393989e-03    1.0120000000e+05
    7.5999968685e-03    1.0120000000e+05
    7.6099084690e-03    1.0120000000e+05
    7.6198200695e-03    1.0120000000e+05
    7.6299789362e-03    1.0120000000e+05
    7.6398896053e-03    1.0120000000e+05
    7.6498012058e-03    1.0120000000e+05
    7.6599610038e-03    1.0120000000e+05
    7.6698721386e-03    1.0120000000e+05
    7.6797832735e-03    1.0120000000e+05
    7.6899426058e-03    1.0120000000e+05
    7.6998537406e-03    1.0120000000e+05
    7.7097648755e-03    1.0120000000e+05
    7.7199232765e-03    1.0120000000e+05
    7.7298344113e-03    1.0126997656e+05
    7.7399928123e-03    2.3116092188e+05
    7.7499030158e-03    2.3617817188e+05
    7.7598136850e-03    2.3539570312e+05
    7.7699716203e-03    2.3462906250e+05
    7.7798818238e-03    2.3388476562e+05
    7.7897915617e-03    2.3314581250e+05
    7.7999490313e-03    2.3239279688e+05
    7.8098587692e-03    2.3166250000e+05
    7.8197680414e-03    2.3093692188e+05
    7.8299250454e-03    2.3019770312e+05
    7.8398343176e-03    2.2948079688e+05
    7.8499913216e-03    2.2875048438e+05
    7.8598996624e-03    2.2804237500e+05
    7.8698089346e-03    2.2733845312e+05
    7.8799659386e-03    2.2662129688e+05
    7.8898761421e-03    2.2592579688e+05
    7.8997854143e-03    2.2523437500e+05
    7.9099433497e-03    2.2452993750e+05
    7.9198526219e-03    2.2384682812e+05
    7.9297618940e-03    2.2316776562e+05
    7.9399226233e-03    2.2247557812e+05
    7.9498374835e-03    2.2180429688e+05
    7.9597532749e-03    2.2113687500e+05
    7.9699177295e-03    2.2045675000e+05
    7.9798344523e-03    2.1979714062e+05
    7.9899989069e-03    2.1912507812e+05
    7.9999146983e-03    2.1847332812e+05
    8.0098295584e-03    2.1782539062e+05
    8.0199921504e-03    2.1716520312e+05
    8.0299060792e-03    2.1652492188e+05
    8.0398218706e-03    2.1588826562e+05
    8.0499853939e-03    2.1523951562e+05
    8.0599011853e-03    2.1461017188e+05
    8.0698179081e-03    2.1398432812e+05
    8.0799814314e-03    2.1334685938e+05
    8.0898972228e-03    2.1272887500e+05
    8.0998130143e-03    2.1211445312e+05
    8.1099765375e-03    2.1148793750e+05
    8.1198923290e-03    2.1087981250e+05
    8.1298071891e-03    2.1027532812e+05
    8.1399697810e-03    2.0966012500e+05
    8.1498846412e-03    2.0906381250e+05
    8.1597985700e-03    2.0847042188e+05
    8.1699611619e-03    2.0786479688e+05
    8.1798741594e-03    2.0727707812e+05
    8.1897871569e-03    2.0669342188e+05
    8.1999478862e-03    2.0609920312e+05
    8.2098618150e-03    2.0552268750e+05
    8.2197757438e-03    2.0494882812e+05
    8.2299383357e-03    2.0436382812e+05
    8.2398550585e-03    2.0379667188e+05
    8.2497717813e-03    2.0323282812e+05
    8.2599353045e-03    2.0265782812e+05
    8.2698510960e-03    2.0209957812e+05
    8.2797668874e-03    2.0154448438e+05
    8.2899294794e-03    2.0097929688e+05
    8.2998434082e-03    2.0043137500e+05
    8.3097573370e-03    1.9988635938e+05
    8.3199199289e-03    1.9933042188e+05
    8.3298357204e-03    1.9879079688e+05
    8.3400001749e-03    1.9824098438e+05
    8.3499150351e-03    1.9770787500e+05
    8.3598298952e-03    1.9717779688e+05
    8.3699924871e-03    1.9663739062e+05
    8.3799064159e-03    1.9611295312e+05
    8.3898203447e-03    1.9559135938e+05
    8.3999838680e-03    1.9505962500e+05
    8.4098987281e-03    1.9454375000e+05
    8.4198135883e-03    1.9403073438e+05
    8.4299752489e-03    1.9350785938e+05
    8.4398891777e-03    1.9300060938e+05
    8.4498031065e-03    1.9249612500e+05
    8.4599647671e-03    1.9198185938e+05
    8.4698786959e-03    1.9148285938e+05
    8.4797916934e-03    1.9098654688e+05
    8.4899524227e-03    1.9048057812e+05
    8.4998654202e-03    1.8998970312e+05
    8.5097774863e-03    1.8950145312e+05
    8.5199382156e-03    1.8900373438e+05
    8.5298502818e-03    1.8852079688e+05
    8.5397623479e-03    1.8804043750e+05
    8.5499212146e-03    1.8755075000e+05
    8.5598332807e-03    1.8707562500e+05
    8.5699930787e-03    1.8659132812e+05
    8.5799051449e-03    1.8612142188e+05
    8.5898162797e-03    1.8565389062e+05
    8.5999770090e-03    1.8517706250e+05
    8.6098918691e-03    1.8471417188e+05
    8.6198076606e-03    1.8425376562e+05
    8.6299721152e-03    1.8378456250e+05
    8.6398907006e-03    1.8332917188e+05
    8.6498185992e-03    1.8287564062e+05
    8.6599979550e-03    1.8241289062e+05
    8.6699267849e-03    1.8196395312e+05
    8.6798630655e-03    1.8151717188e+05
    8.6898114532e-03    1.8107229688e+05
    8.6997644976e-03    1.8062951562e+05
    8.7099699304e-03    1.8017789062e+05
    8.7199267000e-03    1.7973954688e+05
    8.7299020961e-03    1.7930262500e+05
    8.7398840114e-03    1.7886768750e+05
    8.7498724461e-03    1.7843476562e+05
    8.7598646060e-03    1.7800407812e+05
    8.7698595598e-03    1.7757560938e+05
    8.7798694149e-03    1.7714864062e+05
    8.7898885831e-03    1.7672329688e+05
    8.7999152020e-03    1.7629979688e+05
    8.8099418208e-03    1.7587854688e+05
    8.8199712336e-03    1.7545954688e+05
    8.8297668844e-03    1.7505242188e+05
    8.8398177177e-03    1.7463671875e+05
    8.8498741388e-03    1.7422289062e+05
    8.8599333540e-03    1.7381107812e+05
    8.8699944317e-03    1.7340140625e+05
    8.8798226789e-03    1.7300323438e+05
    8.8899023831e-03    1.7259692188e+05
    8.8999932632e-03    1.7219231250e+05
    8.9098392054e-03    1.7179948438e+05
    8.9199366048e-03    1.7139868750e+05
    8.9297955856e-03    1.7100939062e+05
    8.9399097487e-03    1.7061200000e+05
    8.9497780427e-03    1.7022621875e+05
    8.9599089697e-03    1.6983214062e+05
    8.9697856456e-03    1.6944987500e+05
    8.9799249545e-03    1.6905942188e+05
    8.9898137376e-03    1.6868056250e+05
    8.9999679476e-03    1.6829351562e+05
    9.0098790824e-03    1.6791771875e+05
    9.0197902173e-03    1.6754382812e+05
    9.0299583972e-03    1.6716209375e+05
    9.0398751199e-03    1.6679164062e+05
    9.0498039499e-03    1.6642243750e+05
    9.0599963441e-03    1.6604535938e+05
    9.0699382126e-03    1.6567954688e+05
    9.0798838064e-03    1.6531548438e+05
    9.0898284689e-03    1.6495321875e+05
    9.0997805819e-03    1.6459240625e+05
    9.1097448021e-03    1.6423279688e+05
    9.1199697927e-03    1.6386557812e+05
    9.1299433261e-03    1.6350925000e+05
    9.1399196535e-03    1.6315465625e+05
    9.1498997062e-03    1.6280173438e+05
    9.1598872095e-03    1.6245035938e+05
    9.1698812321e-03    1.6210040625e+05
    9.1798808426e-03    1.6175187500e+05
    9.1898841783e-03    1.6140487500e+05
    9.1998931020e-03    1.6105943750e+05
    9.2099076137e-03    1.6071554688e+05
    9.2199286446e-03    1.6037315625e+05
    9.2299534008e-03    1.6003217188e+05
    9.2399818823e-03    1.5969267188e+05
    9.2497570440e-03    1.5936337500e+05
    9.2597948387e-03    1.5902695312e+05
    9.2698354274e-03    1.5869204688e+05
    9.2798853293e-03    1.5835846875e+05
    9.2899389565e-03    1.5802631250e+05
    9.2999944463e-03    1.5769576562e+05
    9.3097994104e-03    1.5737504688e+05
    9.3198670074e-03    1.5704726562e+05
    9.3299383298e-03    1.5672092188e+05
    9.3397563323e-03    1.5640434375e+05
    9.3498360366e-03    1.5608084375e+05
    9.3599176034e-03    1.5575878125e+05
    9.3697477132e-03    1.5544631250e+05
    9.3798432499e-03    1.5512687500e+05
    9.3899425119e-03    1.5480884375e+05
    9.3997856602e-03    1.5450034375e+05
    9.4098923728e-03    1.5418510938e+05
    9.4197429717e-03    1.5387934375e+05
    9.4298580661e-03    1.5356692188e+05
    9.4399778172e-03    1.5325582812e+05
    9.4498433173e-03    1.5295395312e+05
    9.4599723816e-03    1.5264543750e+05
    9.4698425382e-03    1.5234617188e+05
    9.4799790531e-03    1.5204031250e+05
    9.4898594543e-03    1.5174370312e+05
    9.4997445121e-03    1.5144837500e+05
    9.5098949969e-03    1.5114648438e+05
    9.5197875053e-03    1.5085357812e+05
    9.5299445093e-03    1.5055421875e+05
    9.5398426056e-03    1.5026379688e+05
    9.5497472212e-03    1.4997456250e+05
    9.5599181950e-03    1.4967895312e+05
    9.5698302612e-03    1.4939226562e+05
    9.5797451213e-03    1.4910687500e+05
    9.5899244770e-03    1.4881526562e+05
    9.5998477191e-03    1.4853225000e+05
    9.6097718924e-03    1.4825040625e+05
    9.6199661493e-03    1.4796228125e+05
    9.6299042925e-03    1.4768270312e+05
    9.6398442984e-03    1.4740437500e+05
    9.6497908235e-03    1.4712712500e+05
    9.6597382799e-03    1.4685109375e+05
    9.6699483693e-03    1.4656914062e+05
    9.6799023449e-03    1.4629553125e+05
    9.6898572519e-03    1.4602307812e+05
    9.6998196095e-03    1.4575167188e+05
    9.7097801045e-03    1.4548156250e+05
    9.7197461873e-03    1.4521254688e+05
    9.7299776971e-03    1.4493762500e+05
    9.7399456427e-03    1.4467098438e+05
    9.7499247640e-03    1.4440531250e+05
    9.7599085420e-03    1.4414068750e+05
    9.7698951140e-03    1.4387720312e+05
    9.7798872739e-03    1.4361478125e+05
    9.7898775712e-03    1.4335354688e+05
    9.7998734564e-03    1.4309331250e+05
    9.8098665476e-03    1.4283439062e+05
    9.8198689520e-03    1.4257637500e+05
    9.8298769444e-03    1.4231935938e+05
    9.8398849368e-03    1.4206356250e+05
    9.8498994485e-03    1.4180873438e+05
    9.8599148914e-03    1.4155503125e+05
    9.8699303344e-03    1.4130235938e+05
    9.8799495026e-03    1.4105075000e+05
    9.8899696022e-03    1.4080026562e+05
    9.8997382447e-03    1.4055720312e+05
    9.9097695202e-03    1.4030876562e+05
    9.9198063836e-03    1.4006128125e+05
    9.9298469722e-03    1.3981470312e+05
    9.9398866296e-03    1.3956917188e+05
    9.9499346688e-03    1.3932454688e+05
    9.9599808455e-03    1.3908110938e+05
    9.9697681144e-03    1.3884509375e+05
    9.9798180163e-03    1.3860385938e+05
    9.9898735061e-03    1.3836354688e+05
    9.9999373779e-03    1.3812396875e+05
    1.0009735823e-02    1.3789170312e+05
    1.0019804351e-02    1.3765409375e+05
    1.0029875673e-02    1.3741751562e+05
    1.0039946064e-02    1.3718200000e+05
    1.0049758479e-02    1.3695353125e+05
    1.0059829801e-02    1.3672003125e+05
    1.0069913231e-02    1.3648729688e+05
    1.0079997592e-02    1.3625551562e+05
    1.0089821182e-02    1.3603068750e+05
    1.0099915788e-02    1.3580064062e+05
    1.0109743103e-02    1.3557770312e+05
    1.0119840503e-02    1.3534965625e+05
    1.0129936971e-02    1.3512264062e+05
    1.0139769875e-02    1.3490251562e+05
    1.0149878450e-02    1.3467718750e+05
    1.0159984231e-02    1.3445290625e+05
    1.0169832967e-02    1.3423528125e+05
    1.0179945268e-02    1.3401278125e+05
    1.0189795867e-02    1.3379696875e+05
    1.0199917480e-02    1.3357615625e+05
    1.0209770873e-02    1.3336214062e+05
    1.0219899006e-02    1.3314310938e+05
    1.0229758918e-02    1.3293082812e+05
    1.0239887051e-02    1.3271370312e+05
    1.0249756277e-02    1.3250298438e+05
    1.0259889066e-02    1.3228754688e+05
    1.0269764811e-02    1.3207846875e+05
    1.0279904120e-02    1.3186475000e+05
    1.0289779864e-02    1.3165753125e+05
    1.0299929418e-02    1.3144546875e+05
    1.0309809819e-02    1.3123982812e+05
    1.0319966823e-02    1.3102927344e+05
    1.0329852812e-02    1.3082513281e+05
    1.0339740664e-02    1.3062187500e+05
    1.0349905118e-02    1.3041387500e+05
    1.0359797627e-02    1.3021235156e+05
    1.0369967669e-02    1.3000610156e+05
    1.0379866697e-02    1.2980616406e+05
    1.0389768519e-02    1.2960691406e+05
    1.0399946943e-02    1.2940303125e+05
    1.0409854352e-02    1.2920541406e+05
    1.0419772007e-02    1.2900847656e+05
    1.0429955088e-02    1.2880709375e+05
    1.0439869948e-02    1.2861182031e+05
    1.0449795052e-02    1.2841719531e+05
    1.0459981859e-02    1.2821825781e+05
    1.0469909757e-02    1.2802516406e+05
    1.0479836725e-02    1.2783285156e+05
    1.0489767417e-02    1.2764127344e+05
    1.0499973781e-02    1.2744521094e+05
    1.0509910062e-02    1.2725513281e+05
    1.0519853793e-02    1.2706566406e+05
    1.0529797524e-02    1.2687702344e+05
    1.0539740324e-02    1.2668916406e+05
    1.0549959727e-02    1.2649691406e+05
    1.0559906252e-02    1.2631055469e+05
    1.0569863021e-02    1.2612478906e+05
    1.0579816997e-02    1.2593983594e+05
    1.0589774698e-02    1.2575558594e+05
    1.0599742644e-02    1.2557193750e+05
    1.0609973222e-02    1.2538422656e+05
    1.0619943030e-02    1.2520207031e+05
    1.0629914701e-02    1.2502060156e+05
    1.0639884509e-02    1.2483986719e+05
    1.0649863631e-02    1.2465966406e+05
    1.0659839027e-02    1.2448028906e+05
    1.0669823736e-02    1.2430153125e+05
    1.0679811239e-02    1.2412346094e+05
    1.0689796880e-02    1.2394615625e+05
    1.0699792765e-02    1.2376939844e+05
    1.0709785856e-02    1.2359338281e+05
    1.0719785467e-02    1.2341793750e+05
    1.0729787871e-02    1.2324314844e+05
    1.0739788413e-02    1.2306914844e+05
    1.0749799199e-02    1.2289565625e+05
    1.0759805329e-02    1.2272290625e+05
    1.0769818909e-02    1.2255077344e+05
    1.0779834352e-02    1.2237933594e+05
    1.0789849795e-02    1.2220868750e+05
    1.0799878277e-02    1.2203844531e+05
    1.0809904896e-02    1.2186886719e+05
    1.0819937102e-02    1.2169985156e+05
    1.0829977691e-02    1.2153144531e+05
    1.0839746334e-02    1.2136825781e+05
    1.0849789716e-02    1.2120113281e+05
    1.0859829374e-02    1.2103472656e+05
    1.0869869962e-02    1.2086897656e+05
    1.0879914276e-02    1.2070386719e+05
    1.0889956728e-02    1.2053944531e+05
    1.0899733752e-02    1.2037996875e+05
    1.0909783654e-02    1.2021669531e+05
    1.0919836350e-02    1.2005402344e+05
    1.0929893702e-02    1.1989191406e+05
    1.0939948261e-02    1.1973050000e+05
    1.0949733667e-02    1.1957402344e+05
    1.0959788226e-02    1.1941391406e+05
    1.0969842784e-02    1.1925446875e+05
    1.0979907587e-02    1.1909555469e+05
    1.0989974253e-02    1.1893727344e+05
    1.0999776423e-02    1.1878374219e+05
    1.1009853333e-02    1.1862649219e+05
    1.1019929312e-02    1.1846982031e+05
    1.1029740795e-02    1.1831777344e+05
    1.1039824225e-02    1.1816203906e+05
    1.1049912311e-02    1.1800687500e+05
    1.1059998535e-02    1.1785246094e+05
    1.1069809087e-02    1.1770300000e+05
    1.1079899035e-02    1.1755003125e+05
    1.1089989915e-02    1.1739766406e+05
    1.1099812575e-02    1.1724991406e+05
    1.1109905317e-02    1.1709871094e+05
    1.1119995266e-02    1.1694810156e+05
    1.1129820719e-02    1.1680185156e+05
    1.1139918119e-02    1.1665182031e+05
    1.1149744503e-02    1.1650606250e+05
    1.1159852147e-02    1.1635656250e+05
    1.1169962585e-02    1.1620771875e+05
    1.1179802008e-02    1.1606377344e+05
    1.1189913377e-02    1.1591690625e+05
    1.1199750006e-02    1.1577513281e+05
    1.1209858581e-02    1.1563049219e+05
    1.1219967157e-02    1.1548671094e+05
    1.1229803786e-02    1.1534725000e+05
    1.1239914224e-02    1.1520396875e+05
    1.1249753647e-02    1.1506421094e+05
    1.1259868741e-02    1.1492002344e+05
    1.1269983836e-02    1.1477540625e+05
    1.1279824190e-02    1.1463469531e+05
    1.1289936490e-02    1.1449058594e+05
    1.1299774982e-02    1.1435143750e+05
    1.1309884489e-02    1.1421008594e+05
    1.1319995858e-02    1.1407078906e+05
    1.1329835281e-02    1.1393738281e+05
    1.1339950375e-02    1.1380219531e+05
    1.1349792592e-02    1.1367197656e+05
    1.1359906755e-02    1.1353860156e+05
    1.1369748041e-02    1.1340827344e+05
    1.1379862204e-02    1.1327287500e+05
    1.1389974505e-02    1.1313564844e+05
    1.1399814859e-02    1.1300044531e+05
    1.1409930885e-02    1.1286041406e+05
    1.1419774964e-02    1.1272403906e+05
    1.1429890990e-02    1.1258467969e+05
    1.1439734139e-02    1.1245058594e+05
    1.1449853890e-02    1.1231478906e+05
    1.1459972709e-02    1.1218152344e+05
    1.1469817720e-02    1.1205453125e+05
    1.1479935609e-02    1.1192685156e+05
    1.1489781551e-02    1.1180497656e+05
    1.1499905959e-02    1.1168138281e+05
    1.1509758420e-02    1.1156168750e+05
    1.1519886553e-02    1.1143807031e+05
    1.1529738083e-02    1.1131617969e+05
    1.1539867148e-02    1.1118850000e+05
    1.1549731717e-02    1.1106178906e+05
    1.1559872888e-02    1.1092966406e+05
    1.1569743045e-02    1.1080016406e+05
    1.1579886079e-02    1.1066713281e+05
    1.1589754373e-02    1.1053849219e+05
    1.1599903926e-02    1.1040744531e+05
    1.1609783396e-02    1.1028128906e+05
    1.1619937606e-02    1.1015314844e+05
    1.1629828252e-02    1.1002983594e+05
    1.1639998294e-02    1.0990459375e+05
    1.1649896391e-02    1.0978421875e+05
    1.1659793556e-02    1.0966533594e+05
    1.1669964530e-02    1.0954466406e+05
    1.1679858901e-02    1.0942862500e+05
    1.1689751409e-02    1.0931371094e+05
    1.1699917726e-02    1.0919638281e+05
    1.1709809303e-02    1.0908260156e+05
    1.1719974689e-02    1.0896565625e+05
    1.1729866266e-02    1.0885158594e+05
    1.1739759706e-02    1.0873711719e+05
    1.1749928817e-02    1.0861905469e+05
    1.1759825982e-02    1.0850385156e+05
    1.1769996956e-02    1.0838532031e+05
    1.1779893190e-02    1.0827005469e+05
    1.1789788492e-02    1.0815502344e+05
    1.1799956672e-02    1.0803708594e+05
    1.1809850112e-02    1.0792258594e+05
    1.1819742620e-02    1.0780833594e+05
    1.1829908937e-02    1.0769108594e+05
    1.1839800514e-02    1.0757711719e+05
    1.1849966832e-02    1.0746000781e+05
    1.1859857477e-02    1.0734612500e+05
    1.1869748123e-02    1.0723252344e+05
    1.1879912578e-02    1.0711627344e+05
    1.1889801361e-02    1.0700383594e+05
    1.1899964884e-02    1.0688908594e+05
    1.1909852736e-02    1.0677828125e+05
    1.1919739656e-02    1.0666841406e+05
    1.1929901317e-02    1.0655653906e+05
    1.1939787306e-02    1.0644871094e+05
    1.1949948035e-02    1.0633883594e+05
    1.1959834024e-02    1.0623272656e+05
    1.1969993822e-02    1.0612436719e+05
    1.1979877949e-02    1.0601942969e+05
    1.1989762075e-02    1.0591484375e+05
    1.1999920011e-02    1.0580756250e+05
    1.2009803206e-02    1.0570328125e+05
    1.2019960210e-02    1.0559616406e+05
    1.2029842474e-02    1.0549203125e+05
    1.2039998546e-02    1.0538512500e+05
    1.2049879879e-02    1.0528128906e+05
    1.2059762143e-02    1.0517771875e+05
    1.2069919147e-02    1.0507164844e+05
    1.2079800479e-02    1.0496889844e+05
    1.2089955620e-02    1.0486385156e+05
    1.2099837884e-02    1.0476216406e+05
    1.2109996751e-02    1.0465806250e+05
    1.2119884603e-02    1.0455710156e+05
    1.2129775248e-02    1.0445644531e+05
    1.2139939703e-02    1.0435334375e+05
    1.2149848975e-02    1.0425319531e+05
    1.2159783393e-02    1.0415312500e+05
    1.2169745751e-02    1.0405306250e+05
    1.2179738842e-02    1.0395300000e+05
    1.2189762667e-02    1.0385296094e+05
    1.2199817225e-02    1.0375297656e+05
    1.2209899724e-02    1.0365308594e+05
    1.2219728902e-02    1.0355614844e+05
    1.2229863554e-02    1.0345663281e+05
    1.2239737436e-02    1.0336003906e+05
    1.2249912135e-02    1.0326086719e+05
    1.2259823270e-02    1.0316461719e+05
    1.2269758619e-02    1.0306847656e+05
    1.2279724702e-02    1.0297235156e+05
    1.2289726175e-02    1.0287621094e+05
    1.2299763970e-02    1.0278003125e+05
    1.2309842743e-02    1.0268378906e+05
    1.2319957837e-02    1.0258746875e+05
    1.2329817750e-02    1.0249385156e+05
    1.2339999899e-02    1.0239747656e+05
    1.2349912897e-02    1.0230391406e+05
    1.2359840795e-02    1.0221044531e+05
    1.2369777076e-02    1.0211711719e+05
    1.2379720807e-02    1.0202396094e+05
    1.2389967218e-02    1.0192816406e+05
    1.2399937026e-02    1.0183514844e+05
    1.2409931980e-02    1.0174203125e+05
    1.2419957668e-02    1.0164875781e+05
    1.2429719791e-02    1.0155814844e+05
    1.2439803220e-02    1.0146487500e+05
    1.2449906208e-02    1.0137178906e+05
    1.2459724210e-02    1.0128168750e+05
    1.2469846755e-02    1.0118912500e+05
    1.2479974888e-02    1.0109696094e+05
    1.2489807792e-02    1.0100808594e+05
    1.2499947101e-02    1.0091722656e+05
    1.2509806082e-02    1.0082966406e+05
    1.2519991957e-02    1.0073997656e+05
    1.2529907748e-02    1.0065341406e+05
    1.2539850548e-02    1.0056741406e+05
    1.2549812905e-02    1.0048200781e+05
    1.2559786439e-02    1.0039716406e+05
    1.2569766492e-02    1.0031274219e+05
    1.2579756789e-02    1.0022844531e+05
    1.2589782476e-02    1.0014386719e+05
    1.2599882670e-02    1.0005847656e+05
    1.2609794736e-02    9.9974414062e+04
    1.2619860470e-02    9.9888750000e+04
    1.2629785575e-02    9.9804031250e+04
    1.2639893219e-02    9.9717625000e+04
    1.2649854645e-02    9.9632539062e+04
    1.2659993023e-02    9.9546148438e+04
    1.2669960037e-02    9.9461539062e+04
    1.2679735199e-02    9.9379007812e+04
    1.2689658441e-02    9.9295718750e+04
    1.2699726969e-02    9.9211664062e+04
    1.2709938921e-02    9.9126843750e+04
    1.2719918974e-02    9.9044250000e+04
    1.2729651295e-02    9.8963898438e+04
    1.2739883736e-02    9.8879492188e+04
    1.2749857269e-02    9.8797218750e+04
    1.2759947218e-02    9.8713976562e+04
    1.2769758701e-02    9.8633164062e+04
    1.2779677287e-02    9.8551804688e+04
    1.2789701112e-02    9.8470117188e+04
    1.2799831107e-02    9.8388250000e+04
    1.2809655629e-02    9.8309554688e+04
    1.2819993310e-02    9.8227601562e+04
    1.2829596177e-02    9.8152398438e+04
    1.2839712203e-02    9.8074218750e+04
    1.2849925086e-02    9.7996242188e+04
    1.2859803624e-02    9.7921375000e+04
    1.2869766913e-02    9.7846039062e+04
    1.2879813090e-02    9.7769976562e+04
    1.2889938429e-02    9.7692976562e+04
    1.2899698690e-02    9.7618210938e+04
    1.2909979559e-02    9.7538656250e+04
    1.2919884175e-02    9.7461210938e+04
    1.2929849327e-02    9.7382648438e+04
    1.2939861044e-02    9.7303460938e+04
    1.2949905358e-02    9.7224156250e+04
    1.2959982269e-02    9.7145132812e+04
    1.2969625182e-02    9.7070273438e+04
    1.2979764491e-02    9.6992476562e+04
    1.2989936396e-02    9.6915710938e+04
    1.2999687344e-02    9.6843281250e+04
    1.3009947725e-02    9.6768304688e+04
    1.3019769453e-02    9.6697351562e+04
    1.3029630296e-02    9.6626742188e+04
    1.3039995916e-02    9.6552914062e+04
    1.3049933128e-02    9.6482367188e+04
    1.3059893623e-02    9.6411375000e+04
    1.3069910929e-02    9.6339554688e+04
    1.3079957105e-02    9.6266960938e+04
    1.3089562766e-02    9.6196851562e+04
    1.3099682517e-02    9.6122789062e+04
    1.3109815307e-02    9.6048273438e+04
    1.3119551353e-02    9.5976687500e+04
    1.3129742816e-02    9.5901898438e+04
    1.3139538467e-02    9.5830523438e+04
    1.3149811886e-02    9.5756054688e+04
    1.3159667142e-02    9.5685500000e+04
    1.3169517741e-02    9.5615687500e+04
    1.3179944828e-02    9.5542906250e+04
    1.3189838268e-02    9.5474601562e+04
    1.3199848123e-02    9.5406757812e+04
    1.3209849596e-02    9.5339187500e+04
    1.3219820336e-02    9.5272351562e+04
    1.3229873031e-02    9.5205312500e+04
    1.3239991851e-02    9.5137476562e+04
    1.3249592856e-02    9.5073101562e+04
    1.3259734027e-02    9.5004101562e+04
    1.3269912452e-02    9.4933726562e+04
    1.3279543258e-02    9.4866023438e+04
    1.3289746828e-02    9.4794664062e+04
    1.3299510814e-02    9.4726601562e+04
    1.3309823349e-02    9.4655070312e+04
    1.3319576159e-02    9.4587835938e+04
    1.3329913840e-02    9.4518820312e+04
    1.3339818455e-02    9.4454304688e+04
    1.3349710964e-02    9.4390632812e+04
    1.3359682634e-02    9.4327945312e+04
    1.3369596563e-02    9.4265398438e+04
    1.3379530050e-02    9.4203148438e+04
    1.3389488682e-02    9.4140312500e+04
    1.3399476185e-02    9.4076210938e+04
    1.3409494422e-02    9.4010968750e+04
    1.3419550844e-02    9.3944085938e+04
    1.3429646380e-02    9.3876757812e+04
    1.3439765200e-02    9.3809273438e+04
    1.3449814171e-02    9.3742164062e+04
    1.3459928334e-02    9.3676007812e+04
    1.3469549827e-02    9.3614226562e+04
    1.3479716145e-02    9.3550617188e+04
    1.3489902020e-02    9.3488210938e+04
    1.3499584980e-02    9.3429835938e+04
    1.3509812765e-02    9.3368898438e+04
    1.3519532979e-02    9.3310867188e+04
    1.3529798947e-02    9.3249132812e+04
    1.3539560139e-02    9.3189406250e+04
    1.3549862429e-02    9.3125664062e+04
    1.3559670188e-02    9.3063500000e+04
    1.3569951057e-02    9.2998210938e+04
    1.3579736464e-02    9.2936023438e+04
    1.3589979149e-02    9.2871273438e+04
    1.3599636964e-02    9.2811429688e+04
    1.3609656133e-02    9.2750414062e+04
    1.3619984500e-02    9.2689156250e+04
    1.3629557565e-02    9.2633726562e+04
    1.3639827259e-02    9.2575281250e+04
    1.3649783097e-02    9.2518898438e+04
    1.3659884222e-02    9.2461218750e+04
    1.3669664040e-02    9.2404468750e+04
    1.3679972850e-02    9.2343343750e+04
    1.3689918444e-02    9.2283179688e+04
    1.3699902222e-02    9.2222039062e+04
    1.3709887862e-02    9.2160835938e+04
    1.3719838113e-02    9.2100523438e+04
    1.3729715720e-02    9.2041914062e+04
    1.3739807531e-02    9.1983664062e+04
    1.3749714009e-02    9.1928101562e+04
    1.3759973459e-02    9.1871851562e+04
    1.3769879937e-02    9.1818164062e+04
    1.3779886067e-02    9.1763851562e+04
    1.3789805584e-02    9.1709250000e+04
    1.3799897395e-02    9.1652406250e+04
    1.3809972443e-02    9.1594250000e+04
    1.3819908723e-02    9.1535906250e+04
    1.3829976320e-02    9.1476476562e+04
    1.3839958236e-02    9.1418679688e+04
    1.3849884272e-02    9.1362187500e+04
    1.3859868050e-02    9.1306914062e+04
    1.3869930990e-02    9.1252812500e+04
    1.3879961334e-02    9.1200179688e+04
    1.3889932074e-02    9.1148562500e+04
    1.3899888843e-02    9.1096906250e+04
    1.3909921981e-02    9.1044039062e+04
    1.3919831254e-02    9.0990601562e+04
    1.3929811306e-02    9.0935531250e+04
    1.3939837925e-02    9.0879312500e+04
    1.3949856162e-02    9.0822929688e+04
    1.3959838077e-02    9.0767320312e+04
    1.3969954103e-02    9.0712289062e+04
    1.3979977928e-02    9.0659460938e+04
    1.3989864849e-02    9.0608875000e+04
    1.3999828137e-02    9.0558976562e+04
    1.4009857550e-02    9.0509101562e+04
    1.4019952156e-02    9.0458437500e+04
    1.4029878192e-02    9.0407562500e+04
    1.4039843343e-02    9.0355210938e+04
    1.4049854130e-02    9.0301539062e+04
    1.4059907757e-02    9.0247226562e+04
    1.4069999568e-02    9.0192976562e+04
    1.4079887420e-02    9.0140851562e+04
    1.4089830220e-02    9.0089976562e+04
    1.4099776745e-02    9.0040710938e+04
    1.4109776355e-02    8.9992414062e+04
    1.4119773172e-02    8.9944648438e+04
    1.4129828662e-02    8.9896242188e+04
    1.4139871113e-02    8.9846898438e+04
    1.4149972238e-02    8.9796023438e+04
    1.4159834012e-02    8.9745335938e+04
    1.4169982634e-02    8.9692710938e+04
    1.4179899357e-02    8.9641585938e+04
    1.4189837500e-02    8.9591375000e+04
    1.4199815691e-02    8.9542398438e+04
    1.4209785499e-02    8.9494906250e+04
    1.4219791628e-02    8.9448335938e+04
    1.4229829423e-02    8.9402023438e+04
    1.4239883982e-02    8.9355164062e+04
    1.4249945059e-02    8.9307250000e+04
    1.4259819873e-02    8.9259039062e+04
    1.4269931242e-02    8.9208835938e+04
    1.4279816300e-02    8.9159585938e+04
    1.4289974235e-02    8.9109476562e+04
    1.4299906790e-02    8.9061617188e+04
    1.4309841208e-02    8.9015156250e+04
    1.4319816604e-02    8.8969835938e+04
    1.4329806902e-02    8.8925210938e+04
    1.4339789748e-02    8.8880585938e+04
    1.4349805191e-02    8.8835148438e+04
    1.4359844849e-02    8.8788601562e+04
    1.4369874261e-02    8.8741187500e+04
    1.4379926026e-02    8.8693164062e+04
    1.4389772899e-02    8.8646289062e+04
    1.4399844222e-02    8.8599226562e+04
    1.4409932308e-02    8.8553367188e+04
    1.4419817366e-02    8.8509632812e+04
    1.4429932460e-02    8.8465656250e+04
    1.4439810999e-02    8.8422914062e+04
    1.4449972659e-02    8.8378531250e+04
    1.4459888451e-02    8.8334398438e+04
    1.4469801448e-02    8.8289375000e+04
    1.4479986392e-02    8.8242585938e+04
    1.4489941299e-02    8.8196960938e+04
    1.4499891549e-02    8.8152101562e+04
    1.4509866014e-02    8.8108226562e+04
    1.4519858174e-02    8.8065343750e+04
    1.4529838227e-02    8.8023226562e+04
    1.4539843425e-02    8.7981250000e+04
    1.4549871907e-02    8.7938851562e+04
    1.4559890144e-02    8.7895812500e+04
    1.4569914900e-02    8.7852007812e+04
    1.4579973184e-02    8.7807710938e+04
    1.4589791186e-02    8.7764593750e+04
    1.4599848539e-02    8.7721093750e+04
    1.4609925449e-02    8.7678539062e+04
    1.4619766735e-02    8.7637968750e+04
    1.4629855752e-02    8.7596968750e+04
    1.4639959671e-02    8.7555882812e+04
    1.4649828896e-02    8.7515242188e+04
    1.4659947716e-02    8.7472906250e+04
    1.4669836499e-02    8.7431093750e+04
    1.4679984190e-02    8.7388101562e+04
    1.4689883217e-02    8.7346476562e+04
    1.4699784108e-02    8.7305515625e+04
    1.4709953219e-02    8.7264367188e+04
    1.4719884843e-02    8.7224890625e+04
    1.4729815535e-02    8.7185648438e+04
    1.4739754610e-02    8.7146187500e+04
    1.4749953523e-02    8.7105289062e+04
    1.4759914018e-02    8.7064976562e+04
    1.4769879170e-02    8.7024453125e+04
    1.4779848047e-02    8.6983976562e+04
    1.4789826237e-02    8.6943859375e+04
    1.4799814671e-02    8.6904390625e+04
    1.4809811488e-02    8.6865570312e+04
    1.4819811098e-02    8.6827140625e+04
    1.4829812571e-02    8.6788726562e+04
    1.4839828946e-02    8.6750023438e+04
    1.4849855565e-02    8.6710960938e+04
    1.4859884977e-02    8.6671617188e+04
    1.4869913459e-02    8.6632250000e+04
    1.4879954048e-02    8.6593156250e+04
    1.4889754355e-02    8.6555601562e+04
    1.4899807051e-02    8.6517734375e+04
    1.4909865335e-02    8.6480265625e+04
    1.4919926412e-02    8.6442867188e+04
    1.4929998666e-02    8.6405265625e+04
    1.4939829707e-02    8.6368328125e+04
    1.4949911274e-02    8.6330273438e+04
    1.4959996566e-02    8.6292210938e+04
    1.4969839714e-02    8.6255320312e+04
    1.4979942702e-02    8.6217867188e+04
    1.4989797957e-02    8.6181718750e+04
    1.4999902807e-02    8.6144914062e+04
    1.5009763651e-02    8.6109125000e+04
    1.5019889921e-02    8.6072382812e+04
    1.5029765666e-02    8.6036445312e+04
    1.5039895661e-02    8.5999460938e+04
    1.5049774200e-02    8.5963437500e+04
    1.5059917234e-02    8.5926710938e+04
    1.5069812536e-02    8.5891257812e+04
    1.5079965815e-02    8.5855242188e+04
    1.5089862049e-02    8.5820398438e+04
    1.5099763870e-02    8.5785726562e+04
    1.5109929256e-02    8.5750164062e+04
    1.5119845048e-02    8.5715359375e+04
    1.5129760839e-02    8.5680429688e+04
    1.5139935538e-02    8.5644695312e+04
    1.5149858780e-02    8.5610179688e+04
    1.5159794129e-02    8.5576007812e+04
    1.5169980004e-02    8.5541226562e+04
    1.5179914422e-02    8.5507414062e+04
    1.5189858153e-02    8.5473609375e+04
    1.5199800953e-02    8.5439843750e+04
    1.5209751204e-02    8.5406070312e+04
    1.5219950117e-02    8.5371500000e+04
    1.5229901299e-02    8.5337937500e+04
    1.5239863656e-02    8.5304593750e+04
    1.5249829739e-02    8.5271429688e+04
    1.5259797685e-02    8.5238359375e+04
    1.5269765630e-02    8.5205414062e+04
    1.5279988758e-02    8.5171804688e+04
    1.5289958566e-02    8.5139132812e+04
    1.5299928375e-02    8.5106453125e+04
    1.5309898183e-02    8.5073773438e+04
    1.5319867991e-02    8.5041265625e+04
    1.5329837799e-02    8.5009023438e+04
    1.5339815058e-02    8.4976976562e+04
    1.5349795111e-02    8.4945000000e+04
    1.5359776095e-02    8.4913101562e+04
    1.5369758010e-02    8.4881343750e+04
    1.5379996039e-02    8.4848875000e+04
    1.5389977954e-02    8.4817265625e+04
    1.5399959870e-02    8.4785742188e+04
    1.5409940854e-02    8.4754421875e+04
    1.5419921838e-02    8.4723289062e+04
    1.5429902822e-02    8.4692281250e+04
    1.5439882874e-02    8.4661359375e+04
    1.5449863859e-02    8.4630515625e+04
    1.5459844843e-02    8.4599773438e+04
    1.5469826758e-02    8.4569132812e+04
    1.5479808673e-02    8.4538609375e+04
    1.5489790589e-02    8.4508203125e+04
    1.5499774367e-02    8.4477953125e+04
    1.5509758145e-02    8.4447843750e+04
    1.5519999899e-02    8.4417078125e+04
    1.5529985540e-02    8.4387156250e+04
    1.5539971180e-02    8.4357343750e+04
    1.5549957752e-02    8.4327656250e+04
    1.5559944324e-02    8.4298093750e+04
    1.5569930896e-02    8.4268640625e+04
    1.5579918399e-02    8.4239312500e+04
    1.5589904971e-02    8.4210132812e+04
    1.5599892475e-02    8.4181093750e+04
    1.5609880909e-02    8.4152179688e+04
    1.5619869344e-02    8.4123398438e+04
    1.5629859641e-02    8.4094742188e+04
    1.5639849007e-02    8.4066164062e+04
    1.5649838373e-02    8.4037664062e+04
    1.5659829602e-02    8.4009304688e+04
    1.5669820830e-02    8.3981148438e+04
    1.5679812059e-02    8.3953148438e+04
    1.5689805150e-02    8.3925195312e+04
    1.5699798241e-02    8.3897265625e+04
    1.5709791332e-02    8.3869437500e+04
    1.5719784424e-02    8.3841765625e+04
    1.5729777515e-02    8.3814187500e+04
    1.5739770606e-02    8.3786664062e+04
    1.5749763697e-02    8.3759234375e+04
    1.5759758651e-02    8.3731960938e+04
    1.5769751742e-02    8.3704843750e+04
    1.5779746696e-02    8.3677773438e+04
    1.5789996833e-02    8.3650054688e+04
    1.5799991786e-02    8.3623140625e+04
    1.5809988603e-02    8.3596390625e+04
    1.5819985420e-02    8.3569773438e+04
    1.5829985961e-02    8.3543234375e+04
    1.5839988366e-02    8.3516796875e+04
    1.5849996358e-02    8.3490523438e+04
    1.5859749168e-02    8.3465070312e+04
    1.5869757161e-02    8.3439046875e+04
    1.5879765153e-02    8.3413101562e+04
    1.5889771283e-02    8.3387273438e+04
    1.5899775550e-02    8.3361609375e+04
    1.5909781680e-02    8.3336062500e+04
    1.5919785947e-02    8.3310585938e+04
    1.5929792076e-02    8.3285195312e+04
    1.5939800069e-02    8.3259906250e+04
    1.5949813649e-02    8.3234687500e+04
    1.5959825367e-02    8.3209539062e+04
    1.5969837084e-02    8.3184500000e+04
    1.5979848802e-02    8.3159578125e+04
    1.5989860520e-02    8.3134750000e+04
    1.5999872237e-02    8.3110023438e+04
    1.6009883955e-02    8.3085398438e+04
    1.6019895673e-02    8.3060898438e+04
    1.6029907390e-02    8.3036523438e+04
    1.6039919108e-02    8.3012250000e+04
    1.6049930826e-02    8.2988085938e+04
    1.6059942544e-02    8.2964046875e+04
    1.6069956124e-02    8.2940148438e+04
    1.6079969704e-02    8.2916335938e+04
    1.6089981422e-02    8.2892601562e+04
    1.6099993140e-02    8.2868984375e+04
    1.6109749675e-02    8.2846117188e+04
    1.6119761392e-02    8.2822734375e+04
    1.6129774973e-02    8.2799406250e+04
    1.6139788553e-02    8.2776171875e+04
    1.6149802133e-02    8.2753062500e+04
    1.6159815714e-02    8.2730070312e+04
    1.6169827431e-02    8.2707156250e+04
    1.6179841012e-02    8.2684296875e+04
    1.6189854592e-02    8.2661554688e+04
    1.6199868172e-02    8.2638968750e+04
    1.6209881753e-02    8.2616492188e+04
    1.6219895333e-02    8.2594054688e+04
    1.6229908913e-02    8.2571703125e+04
    1.6239922494e-02    8.2549500000e+04
    1.6249934211e-02    8.2527437500e+04
    1.6259947792e-02    8.2505476562e+04
    1.6269961372e-02    8.2483601562e+04
    1.6279974952e-02    8.2461820312e+04
    1.6289988533e-02    8.2440132812e+04
    1.6299746931e-02    8.2419078125e+04
    1.6309760511e-02    8.2397562500e+04
    1.6319774091e-02    8.2376171875e+04
    1.6329787672e-02    8.2354890625e+04
    1.6339801252e-02    8.2333648438e+04
    1.6349814832e-02    8.2312476562e+04
    1.6359830275e-02    8.2291445312e+04
    1.6369843856e-02    8.2270570312e+04
    1.6379857436e-02    8.2249804688e+04
    1.6389871016e-02    8.2229117188e+04
    1.6399886459e-02    8.2208507812e+04
    1.6409900039e-02    8.2187984375e+04
    1.6419913620e-02    8.2167570312e+04
    1.6429929063e-02    8.2147273438e+04
    1.6439942643e-02    8.2127078125e+04
    1.6449956223e-02    8.2106960938e+04
    1.6459971666e-02    8.2086953125e+04
    1.6469985247e-02    8.2067046875e+04
    1.6479743645e-02    8.2047726562e+04
    1.6489757225e-02    8.2027960938e+04
    1.6499772668e-02    8.2008281250e+04
    1.6509786248e-02    8.1988718750e+04
    1.6519799829e-02    8.1969281250e+04
    1.6529815271e-02    8.1949960938e+04
    1.6539830714e-02    8.1930734375e+04
    1.6549844295e-02    8.1911570312e+04
    1.6559859738e-02    8.1892460938e+04
    1.6569873318e-02    8.1873460938e+04
    1.6579888761e-02    8.1854601562e+04
    1.6589902341e-02    8.1835859375e+04
    1.6599917784e-02    8.1817164062e+04
    1.6609933227e-02    8.1798492188e+04
    1.6619946808e-02    8.1779945312e+04
    1.6629962251e-02    8.1761578125e+04
    1.6639977694e-02    8.1743296875e+04
    1.6649991274e-02    8.1725054688e+04
    1.6659749672e-02    8.1707359375e+04
    1.6669765115e-02    8.1689335938e+04
    1.6679780558e-02    8.1671421875e+04
    1.6689794138e-02    8.1653578125e+04
    1.6699809581e-02    8.1635804688e+04
    1.6709825024e-02    8.1618140625e+04
    1.6719840467e-02    8.1600585938e+04
    1.6729855910e-02    8.1583125000e+04
    1.6739871353e-02    8.1565710938e+04
    1.6749886796e-02    8.1548375000e+04
    1.6759902239e-02    8.1531148438e+04
    1.6769917682e-02    8.1514062500e+04
    1.6779933125e-02    8.1497062500e+04
    1.6789948568e-02    8.1480125000e+04
    1.6799964011e-02    8.1463281250e+04
    1.6809979454e-02    8.1446554688e+04
    1.6819994897e-02    8.1429906250e+04
    1.6829755157e-02    8.1413757812e+04
    1.6839770600e-02    8.1397273438e+04
    1.6849786043e-02    8.1380914062e+04
    1.6859803349e-02    8.1364648438e+04
    1.6869818792e-02    8.1348437500e+04
    1.6879836097e-02    8.1332265625e+04
    1.6889851540e-02    8.1316203125e+04
    1.6899868846e-02    8.1300281250e+04
    1.6909884289e-02    8.1284468750e+04
    1.6919901595e-02    8.1268726562e+04
    1.6929917037e-02    8.1253062500e+04
    1.6939934343e-02    8.1237476562e+04
    1.6949951649e-02    8.1221992188e+04
    1.6959968954e-02    8.1206609375e+04
    1.6969986260e-02    8.1191320312e+04
    1.6979748383e-02    8.1176484375e+04
    1.6989765689e-02    8.1161328125e+04
    1.6999782994e-02    8.1146242188e+04
    1.7009800300e-02    8.1131265625e+04
    1.7019817606e-02    8.1116421875e+04
    1.7029836774e-02    8.1101671875e+04
    1.7039854079e-02    8.1086960938e+04
    1.7049871385e-02    8.1072320312e+04
    1.7059890553e-02    8.1057812500e+04
    1.7069907859e-02    8.1043429688e+04
    1.7079927027e-02    8.1029109375e+04
    1.7089946195e-02    8.1014820312e+04
    1.7099965364e-02    8.1000609375e+04
    1.7109984532e-02    8.0986539062e+04
    1.7119746655e-02    8.0972945312e+04
    1.7129765823e-02    8.0959023438e+04
    1.7139784992e-02    8.0945148438e+04
    1.7149806023e-02    8.0931398438e+04
    1.7159825191e-02    8.0917789062e+04
    1.7169844359e-02    8.0904242188e+04
    1.7179865390e-02    8.0890726562e+04
    1.7189884558e-02    8.0877328125e+04
    1.7199905589e-02    8.0864062500e+04
    1.7209924757e-02    8.0850875000e+04
    1.7219945788e-02    8.0837726562e+04
    1.7229964957e-02    8.0824656250e+04
    1.7239985988e-02    8.0811710938e+04
    1.7249748111e-02    8.0799203125e+04
    1.7259769142e-02    8.0786398438e+04
    1.7269790173e-02    8.0773632812e+04
    1.7279813066e-02    8.0760992188e+04
    1.7289834097e-02    8.0748500000e+04
    1.7299855128e-02    8.0736070312e+04
    1.7309878021e-02    8.0723687500e+04
    1.7319899052e-02    8.0711390625e+04
    1.7329921946e-02    8.0699226562e+04
    1.7339942977e-02    8.0687148438e+04
    1.7349965870e-02    8.0675101562e+04
    1.7359986901e-02    8.0663109375e+04
    1.7369750887e-02    8.0651531250e+04
    1.7379773781e-02    8.0639781250e+04
    1.7389796674e-02    8.0628109375e+04
    1.7399819568e-02    8.0616500000e+04
    1.7409844324e-02    8.0604968750e+04
    1.7419867218e-02    8.0593531250e+04
    1.7429890111e-02    8.0582156250e+04
    1.7439913005e-02    8.0570867188e+04
    1.7449935898e-02    8.0559710938e+04
    1.7459958792e-02    8.0548671875e+04
    1.7469983548e-02    8.0537679688e+04
    1.7479749396e-02    8.0526984375e+04
    1.7489774153e-02    8.0516078125e+04
    1.7499798909e-02    8.0505320312e+04
    1.7509821802e-02    8.0494671875e+04
    1.7519846559e-02    8.0484062500e+04
    1.7529871315e-02    8.0473507812e+04
    1.7539896071e-02    8.0463093750e+04
    1.7549920827e-02    8.0452796875e+04
    1.7559945583e-02    8.0442523438e+04
    1.7569970340e-02    8.0432281250e+04
    1.7579995096e-02    8.0422140625e+04
    1.7589762807e-02    8.0412398438e+04
    1.7599789426e-02    8.0402492188e+04
    1.7609814182e-02    8.0392648438e+04
    1.7619838938e-02    8.0382882812e+04
    1.7629865557e-02    8.0373210938e+04
    1.7639890313e-02    8.0363585938e+04
    1.7649916932e-02    8.0354000000e+04
    1.7659943551e-02    8.0344507812e+04
    1.7669970170e-02    8.0335171875e+04
    1.7679996789e-02    8.0325929688e+04
    1.7689766362e-02    8.0316929688e+04
    1.7699792981e-02    8.0307742188e+04
    1.7709819600e-02    8.0298710938e+04
    1.7719846219e-02    8.0289828125e+04
    1.7729872838e-02    8.0280984375e+04
    1.7739899457e-02    8.0272156250e+04
    1.7749927938e-02    8.0263421875e+04
    1.7759954557e-02    8.0254804688e+04
    1.7769983038e-02    8.0246289062e+04
    1.7779752612e-02    8.0238039062e+04
    1.7789781094e-02    8.0229609375e+04
    1.7799809575e-02    8.0221296875e+04
    1.7809836194e-02    8.0213148438e+04
    1.7819864675e-02    8.0205070312e+04
    1.7829893157e-02    8.0197000000e+04
    1.7839921638e-02    8.0188968750e+04
    1.7849950120e-02    8.0181070312e+04
    1.7859978601e-02    8.0173304688e+04
    1.7869750038e-02    8.0165804688e+04
    1.7879780382e-02    8.0158156250e+04
    1.7889808863e-02    8.0150578125e+04
    1.7899837345e-02    8.0143078125e+04
    1.7909867689e-02    8.0135671875e+04
    1.7919896170e-02    8.0128359375e+04
    1.7929926515e-02    8.0121132812e+04
    1.7939954996e-02    8.0113960938e+04
    1.7949985340e-02    8.0106812500e+04
    1.7959758639e-02    8.0099937500e+04
    1.7969787121e-02    8.0093039062e+04
    1.7979817465e-02    8.0086281250e+04
    1.7989847809e-02    8.0079531250e+04
    1.7999878153e-02    8.0072781250e+04
    1.8009908497e-02    8.0066125000e+04
    1.8019938841e-02    8.0059625000e+04
    1.8029969186e-02    8.0053226562e+04
    1.8039742485e-02    8.0047039062e+04
    1.8049772829e-02    8.0040742188e+04
    1.8059805036e-02    8.0034562500e+04
    1.8069835380e-02    8.0028468750e+04
    1.8079865724e-02    8.0022421875e+04
    1.8089897931e-02    8.0016429688e+04
    1.8099928275e-02    8.0010554688e+04
    1.8109960482e-02    8.0004820312e+04
    1.8119990826e-02    7.9999164062e+04
    1.8129765987e-02    7.9993695312e+04
    1.8139798194e-02    7.9988148438e+04
    1.8149828538e-02    7.9982695312e+04
    1.8159860745e-02    7.9977312500e+04
    1.8169892952e-02    7.9971992188e+04
    1.8179925159e-02    7.9966781250e+04
    1.8189957365e-02    7.9961718750e+04
    1.8199989572e-02    7.9956750000e+04
    1.8209764734e-02    7.9951898438e+04
    1.8219796941e-02    7.9946921875e+04
    1.8229829147e-02    7.9942078125e+04
    1.8239861354e-02    7.9937398438e+04
    1.8249893561e-02    7.9932773438e+04
    1.8259927630e-02    7.9928156250e+04
    1.8269959837e-02    7.9923617188e+04
    1.8279993907e-02    7.9919210938e+04
    1.8289769068e-02    7.9915015625e+04
    1.8299801275e-02    7.9910781250e+04
    1.8309835345e-02    7.9906609375e+04
    1.8319867551e-02    7.9902523438e+04
    1.8329901621e-02    7.9898546875e+04
    1.8339935690e-02    7.9894632812e+04
    1.8349967897e-02    7.9890796875e+04
    1.8359744921e-02    7.9887156250e+04
    1.8369778991e-02    7.9883507812e+04
    1.8379813060e-02    7.9879906250e+04
    1.8389847130e-02    7.9876367188e+04
    1.8399881199e-02    7.9872960938e+04
    1.8409915268e-02    7.9869648438e+04
    1.8419949338e-02    7.9866375000e+04
    1.8429983407e-02    7.9863164062e+04
    1.8439758569e-02    7.9860148438e+04
    1.8449794501e-02    7.9857171875e+04
    1.8459828570e-02    7.9854250000e+04
    1.8469862640e-02    7.9851375000e+04
    1.8479896709e-02    7.9848578125e+04
    1.8489932641e-02    7.9845921875e+04
    1.8499966711e-02    7.9843375000e+04
    1.8509743735e-02    7.9840929688e+04
    1.8519779667e-02    7.9838437500e+04
    1.8529813737e-02    7.9836015625e+04
    1.8539849669e-02    7.9833703125e+04
    1.8549883738e-02    7.9831476562e+04
    1.8559919670e-02    7.9829335938e+04
    1.8569953740e-02    7.9827320312e+04
    1.8579989672e-02    7.9825406250e+04
    1.8589768559e-02    7.9823578125e+04
    1.8599802628e-02    7.9821718750e+04
    1.8609838560e-02    7.9819976562e+04
    1.8619874492e-02    7.9818390625e+04
    1.8629910424e-02    7.9816906250e+04
    1.8639946356e-02    7.9815414062e+04
    1.8649982288e-02    7.9813976562e+04
    1.8659759313e-02    7.9812742188e+04
    1.8669795245e-02    7.9811632812e+04
    1.8679833040e-02    7.9810570312e+04
    1.8689868972e-02    7.9809531250e+04
    1.8699904904e-02    7.9808562500e+04
    1.8709940836e-02    7.9807718750e+04
    1.8719976768e-02    7.9806992188e+04
    1.8729755655e-02    7.9806351562e+04
    1.8739791587e-02    7.9805765625e+04
    1.8749829382e-02    7.9805265625e+04
    1.8759865314e-02    7.9804851562e+04
    1.8769901246e-02    7.9804500000e+04
    1.8779939041e-02    7.9804187500e+04
    1.8789974973e-02    7.9803945312e+04
    1.8799753860e-02    7.9803796875e+04
    1.8809791654e-02    7.9803750000e+04
    1.8819827586e-02    7.9803820312e+04
    1.8829865381e-02    7.9803992188e+04
    1.8839901313e-02    7.9804203125e+04
    1.8849939108e-02    7.9804468750e+04
    1.8859976903e-02    7.9804835938e+04
    1.8869755790e-02    7.9805328125e+04
    1.8879793584e-02    7.9805976562e+04
    1.8889829516e-02    7.9806695312e+04
    1.8899867311e-02    7.9807429688e+04
    1.8909905106e-02    7.9808242188e+04
    1.8919942901e-02    7.9809218750e+04
    1.8929978833e-02    7.9810328125e+04
    1.8939759582e-02    7.9811453125e+04
    1.8949797377e-02    7.9812640625e+04
    1.8959835172e-02    7.9813960938e+04
    1.8969871104e-02    7.9815406250e+04
    1.8979908898e-02    7.9816914062e+04
    1.8989946693e-02    7.9818476562e+04
    1.8999984488e-02    7.9820132812e+04
    1.9009765238e-02    7.9821859375e+04
    1.9019803032e-02    7.9823726562e+04
    1.9029840827e-02    7.9825648438e+04
    1.9039878622e-02    7.9827609375e+04
    1.9049916416e-02    7.9829671875e+04
    1.9059954211e-02    7.9831875000e+04
    1.9069992006e-02    7.9834179688e+04
    1.9079772756e-02    7.9836476562e+04
    1.9089810550e-02    7.9838921875e+04
    1.9099850208e-02    7.9841468750e+04
    1.9109888002e-02    7.9844117188e+04
    1.9119925797e-02    7.9846851562e+04
    1.9129963592e-02    7.9849695312e+04
    1.9139744341e-02    7.9852562500e+04
    1.9149782136e-02    7.9855562500e+04
    1.9159821793e-02    7.9858601562e+04
    1.9169859588e-02    7.9861695312e+04
    1.9179897383e-02    7.9864921875e+04
    1.9189935178e-02    7.9868304688e+04
    1.9199974835e-02    7.9871781250e+04
    1.9209755585e-02    7.9875195312e+04
    1.9219793379e-02    7.9878757812e+04
    1.9229831174e-02    7.9882414062e+04
    1.9239870831e-02    7.9886210938e+04
    1.9249908626e-02    7.9890132812e+04
    1.9259946421e-02    7.9894171875e+04
    1.9269986078e-02    7.9898320312e+04
    1.9279766828e-02    7.9902429688e+04
    1.9289804623e-02    7.9906710938e+04
    1.9299844280e-02    7.9911078125e+04
    1.9309882075e-02    7.9915554688e+04
    1.9319919869e-02    7.9920125000e+04
    1.9329959527e-02    7.9924789062e+04
    1.9339997321e-02    7.9929585938e+04
    1.9349778071e-02    7.9934390625e+04
    1.9359817728e-02    7.9939382812e+04
    1.9369855523e-02    7.9944375000e+04
    1.9379895180e-02    7.9949453125e+04
    1.9389932975e-02    7.9954695312e+04
    1.9399972633e-02    7.9960062500e+04
    1.9409753382e-02    7.9965367188e+04
    1.9419791177e-02    7.9970859375e+04
    1.9429830834e-02    7.9976453125e+04
    1.9439868629e-02    7.9982195312e+04
[...]
    1.1513987184e-01    1.0123413281e+05
    1.1514998972e-01    1.0123412500e+05
    1.1515980959e-01    1.0123411719e+05
    1.1516992748e-01    1.0123410156e+05
    1.1517974734e-01    1.0123410156e+05
    1.1518986523e-01    1.0123409375e+05
    1.1519998312e-01    1.0123408594e+05
    1.1520980299e-01    1.0123407031e+05
    1.1521991342e-01    1.0123406250e+05
    1.1522973329e-01    1.0123405469e+05
    1.1523985118e-01    1.0123403906e+05
    1.1524996907e-01    1.0123403125e+05
    1.1525978893e-01    1.0123402344e+05
    1.1526990682e-01    1.0123402344e+05
    1.1527972668e-01    1.0123400781e+05
    1.1528984457e-01    1.0123400000e+05
    1.1529995501e-01    1.0123397656e+05
    1.1530977488e-01    1.0123397656e+05
    1.1531989276e-01    1.0123396875e+05
    1.1532971263e-01    1.0123396094e+05
    1.1533983052e-01    1.0123396094e+05
    1.1534994841e-01    1.0123394531e+05
    1.1535976827e-01    1.0123392969e+05
    1.1536988616e-01    1.0123391406e+05
    1.1537999660e-01    1.0123391406e+05
    1.1538981646e-01    1.0123390625e+05
    1.1539993435e-01    1.0123389844e+05
    1.1540975422e-01    1.0123389844e+05
    1.1541987211e-01    1.0123387500e+05
    1.1542998999e-01    1.0123386719e+05
    1.1543980986e-01    1.0123385156e+05
    1.1544992775e-01    1.0123385156e+05
    1.1545974016e-01    1.0123384375e+05
    1.1546985805e-01    1.0123383594e+05
    1.1547997594e-01    1.0123382031e+05
    1.1548979580e-01    1.0123381250e+05
    1.1549991369e-01    1.0123380469e+05
    1.1550973356e-01    1.0123378906e+05
    1.1551985145e-01    1.0123378906e+05
    1.1552996933e-01    1.0123377344e+05
    1.1553978175e-01    1.0123377344e+05
    1.1554989964e-01    1.0123375781e+05
    1.1555971950e-01    1.0123375000e+05
    1.1556983739e-01    1.0123372656e+05
    1.1557995528e-01    1.0123372656e+05
    1.1558977515e-01    1.0123371875e+05
    1.1559989303e-01    1.0123371094e+05
    1.1560971290e-01    1.0123369531e+05
    1.1561982334e-01    1.0123368750e+05
    1.1562994123e-01    1.0123367969e+05
    1.1563976109e-01    1.0123366406e+05
    1.1564987898e-01    1.0123366406e+05
    1.1565999687e-01    1.0123364844e+05
    1.1566981673e-01    1.0123364844e+05
    1.1567993462e-01    1.0123363281e+05
    1.1568975449e-01    1.0123362500e+05
    1.1569986492e-01    1.0123361719e+05
    1.1570998281e-01    1.0123360156e+05
    1.1571980268e-01    1.0123359375e+05
    1.1572992057e-01    1.0123358594e+05
    1.1573974043e-01    1.0123358594e+05
    1.1574985832e-01    1.0123357031e+05
    1.1575997621e-01    1.0123355469e+05
    1.1576979607e-01    1.0123353906e+05
    1.1577990651e-01    1.0123353906e+05
    1.1578972638e-01    1.0123353125e+05
    1.1579984426e-01    1.0123352344e+05
    1.1580996215e-01    1.0123350781e+05
    1.1581978202e-01    1.0123350000e+05
    1.1582989991e-01    1.0123349219e+05
    1.1583971977e-01    1.0123347656e+05
    1.1584983766e-01    1.0123347656e+05
    1.1585994810e-01    1.0123346875e+05
    1.1586976796e-01    1.0123346094e+05
    1.1587988585e-01    1.0123346094e+05
    1.1588970572e-01    1.0123344531e+05
    1.1589982361e-01    1.0123343750e+05
    1.1590994149e-01    1.0123342969e+05
    1.1591976136e-01    1.0123341406e+05
    1.1592987925e-01    1.0123340625e+05
    1.1593998969e-01    1.0123339844e+05
    1.1594980955e-01    1.0123339844e+05
    1.1595992744e-01    1.0123338281e+05
    1.1596974730e-01    1.0123337500e+05
    1.1597986519e-01    1.0123335156e+05
    1.1598998308e-01    1.0123335156e+05
    1.1599980295e-01    1.0123334375e+05
    1.1600992084e-01    1.0123333594e+05
    1.1601974070e-01    1.0123333594e+05
    1.1602985114e-01    1.0123331250e+05
    1.1603996903e-01    1.0123330469e+05
    1.1604978889e-01    1.0123328906e+05
    1.1605990678e-01    1.0123328125e+05
    1.1606972665e-01    1.0123327344e+05
    1.1607984453e-01    1.0123327344e+05
    1.1608996242e-01    1.0123325000e+05
    1.1609978229e-01    1.0123324219e+05
    1.1610989273e-01    1.0123322656e+05
    1.1611971259e-01    1.0123322656e+05
    1.1612983048e-01    1.0123321875e+05
    1.1613994837e-01    1.0123321094e+05
    1.1614976823e-01    1.0123321094e+05
    1.1615988612e-01    1.0123319531e+05
    1.1616970599e-01    1.0123318750e+05
    1.1617982388e-01    1.0123317969e+05
    1.1618993431e-01    1.0123316406e+05
    1.1619975418e-01    1.0123316406e+05
    1.1620987207e-01    1.0123314844e+05
    1.1621998996e-01    1.0123314844e+05
    1.1622980982e-01    1.0123313281e+05
    1.1623992771e-01    1.0123311719e+05
    1.1624974757e-01    1.0123310156e+05
    1.1625986546e-01    1.0123310156e+05
    1.1626997590e-01    1.0123309375e+05
    1.1627979577e-01    1.0123308594e+05
    1.1628991365e-01    1.0123307031e+05
    1.1629973352e-01    1.0123306250e+05
    1.1630985141e-01    1.0123305469e+05
    1.1631996930e-01    1.0123303906e+05
    1.1632978916e-01    1.0123303125e+05
    1.1633990705e-01    1.0123302344e+05
    1.1634971946e-01    1.0123300781e+05
    1.1635983735e-01    1.0123300000e+05
    1.1636995524e-01    1.0123299219e+05
    1.1637977511e-01    1.0123297656e+05
    1.1638989300e-01    1.0123297656e+05
    1.1639971286e-01    1.0123296875e+05
    1.1640983075e-01    1.0123296094e+05
    1.1641994864e-01    1.0123296094e+05
    1.1642976105e-01    1.0123294531e+05
    1.1643987894e-01    1.0123293750e+05
    1.1644999683e-01    1.0123292969e+05
    1.1645981669e-01    1.0123291406e+05
    1.1646993458e-01    1.0123291406e+05
    1.1647975445e-01    1.0123290625e+05
    1.1648987234e-01    1.0123289844e+05
    1.1649999022e-01    1.0123288281e+05
    1.1650980264e-01    1.0123287500e+05
    1.1651992053e-01    1.0123286719e+05
    1.1652974039e-01    1.0123285156e+05
    1.1653985828e-01    1.0123284375e+05
    1.1654997617e-01    1.0123283594e+05
    1.1655979604e-01    1.0123283594e+05
    1.1656991392e-01    1.0123281250e+05
    1.1657973379e-01    1.0123280469e+05
    1.1658984423e-01    1.0123278906e+05
    1.1659996212e-01    1.0123278906e+05
    1.1660978198e-01    1.0123278125e+05
    1.1661989987e-01    1.0123277344e+05
    1.1662971973e-01    1.0123275781e+05
    1.1663983762e-01    1.0123275000e+05
    1.1664995551e-01    1.0123274219e+05
    1.1665977538e-01    1.0123272656e+05
    1.1666988581e-01    1.0123272656e+05
    1.1667970568e-01    1.0123271875e+05
    1.1668982357e-01    1.0123271094e+05
    1.1669994146e-01    1.0123271094e+05
    1.1670976132e-01    1.0123269531e+05
    1.1671987921e-01    1.0123268750e+05
    1.1672999710e-01    1.0123267969e+05
    1.1673981696e-01    1.0123266406e+05
    1.1674992740e-01    1.0123266406e+05
    1.1675974727e-01    1.0123265625e+05
    1.1676986516e-01    1.0123264844e+05
    1.1677998304e-01    1.0123263281e+05
    1.1678980291e-01    1.0123262500e+05
    1.1679992080e-01    1.0123261719e+05
    1.1680974066e-01    1.0123260156e+05
    1.1681985855e-01    1.0123259375e+05
    1.1682996899e-01    1.0123258594e+05
    1.1683978885e-01    1.0123258594e+05
    1.1684990674e-01    1.0123257031e+05
    1.1685972661e-01    1.0123256250e+05
    1.1686984450e-01    1.0123255469e+05
    1.1687996238e-01    1.0123253906e+05
    1.1688978225e-01    1.0123253906e+05
    1.1689990014e-01    1.0123253125e+05
    1.1690972000e-01    1.0123252344e+05
    1.1691983044e-01    1.0123250781e+05
    1.1692994833e-01    1.0123250000e+05
    1.1693976820e-01    1.0123249219e+05
    1.1694988608e-01    1.0123247656e+05
    1.1695970595e-01    1.0123247656e+05
    1.1696982384e-01    1.0123246094e+05
    1.1697994173e-01    1.0123246094e+05
    1.1698976159e-01    1.0123244531e+05
    1.1699987203e-01    1.0123243750e+05
    1.1700998992e-01    1.0123242969e+05
    1.1701980978e-01    1.0123241406e+05
    1.1702992767e-01    1.0123240625e+05
    1.1703974754e-01    1.0123239844e+05
    1.1704986542e-01    1.0123239844e+05
    1.1705998331e-01    1.0123238281e+05
    1.1706980318e-01    1.0123237500e+05
    1.1707991362e-01    1.0123235156e+05
    1.1708973348e-01    1.0123235156e+05
    1.1709985137e-01    1.0123234375e+05
    1.1710996926e-01    1.0123233594e+05
    1.1711978912e-01    1.0123233594e+05
    1.1712990701e-01    1.0123232031e+05
    1.1713972688e-01    1.0123231250e+05
    1.1714984477e-01    1.0123230469e+05
    1.1715995520e-01    1.0123228906e+05
    1.1716977507e-01    1.0123228906e+05
    1.1717989296e-01    1.0123228125e+05
    1.1718971282e-01    1.0123227344e+05
    1.1719983071e-01    1.0123227344e+05
    1.1720994860e-01    1.0123225781e+05
    1.1721976846e-01    1.0123225000e+05
    1.1722988635e-01    1.0123224219e+05
    1.1723970622e-01    1.0123222656e+05
    1.1724981666e-01    1.0123221875e+05
    1.1725993454e-01    1.0123221094e+05
    1.1726975441e-01    1.0123221094e+05
    1.1727987230e-01    1.0123219531e+05
    1.1728999019e-01    1.0123218750e+05
    1.1729981005e-01    1.0123217969e+05
    1.1730992794e-01    1.0123216406e+05
    1.1731974781e-01    1.0123216406e+05
    1.1732985824e-01    1.0123215625e+05
    1.1733997613e-01    1.0123214844e+05
    1.1734979600e-01    1.0123214844e+05
    1.1735991389e-01    1.0123213281e+05
    1.1736973375e-01    1.0123211719e+05
    1.1737985164e-01    1.0123210156e+05
    1.1738996953e-01    1.0123210156e+05
    1.1739978939e-01    1.0123209375e+05
    1.1740989983e-01    1.0123208594e+05
    1.1741971970e-01    1.0123208594e+05
    1.1742983758e-01    1.0123207031e+05
    1.1743995547e-01    1.0123206250e+05
    1.1744977534e-01    1.0123205469e+05
    1.1745989323e-01    1.0123203906e+05
    1.1746971309e-01    1.0123203906e+05
    1.1747983098e-01    1.0123203125e+05
    1.1748994142e-01    1.0123202344e+05
    1.1749976128e-01    1.0123202344e+05
    1.1750987917e-01    1.0123200781e+05
    1.1751999706e-01    1.0123199219e+05
    1.1752981693e-01    1.0123197656e+05
    1.1753993481e-01    1.0123197656e+05
    1.1754975468e-01    1.0123196875e+05
    1.1755987257e-01    1.0123196094e+05
    1.1756998301e-01    1.0123196094e+05
    1.1757980287e-01    1.0123194531e+05
    1.1758992076e-01    1.0123193750e+05
    1.1759974062e-01    1.0123192969e+05
    1.1760985851e-01    1.0123191406e+05
    1.1761997640e-01    1.0123191406e+05
    1.1762979627e-01    1.0123190625e+05
    1.1763991416e-01    1.0123189844e+05
    1.1764973402e-01    1.0123189844e+05
    1.1765984446e-01    1.0123188281e+05
    1.1766996235e-01    1.0123187500e+05
    1.1767978221e-01    1.0123186719e+05
    1.1768990010e-01    1.0123185156e+05
    1.1769971997e-01    1.0123185156e+05
    1.1770983785e-01    1.0123184375e+05
    1.1771995574e-01    1.0123183594e+05
    1.1772977561e-01    1.0123182031e+05
    1.1773988605e-01    1.0123181250e+05
    1.1774970591e-01    1.0123180469e+05
    1.1775982380e-01    1.0123178906e+05
    1.1776994169e-01    1.0123178906e+05
    1.1777976155e-01    1.0123178125e+05
    1.1778987944e-01    1.0123177344e+05
    1.1779999733e-01    1.0123177344e+05
    1.1780981719e-01    1.0123175781e+05
    1.1781992763e-01    1.0123175000e+05
    1.1782974750e-01    1.0123174219e+05
    1.1783986539e-01    1.0123172656e+05
    1.1784998327e-01    1.0123172656e+05
    1.1785980314e-01    1.0123171875e+05
    1.1786992103e-01    1.0123171094e+05
    1.1787974089e-01    1.0123171094e+05
    1.1788985878e-01    1.0123169531e+05
    1.1789996922e-01    1.0123168750e+05
    1.1790978909e-01    1.0123167969e+05
    1.1791990697e-01    1.0123166406e+05
    1.1792972684e-01    1.0123166406e+05
    1.1793984473e-01    1.0123165625e+05
    1.1794996262e-01    1.0123164844e+05
    1.1795978248e-01    1.0123164844e+05
    1.1796990037e-01    1.0123162500e+05
    1.1797972023e-01    1.0123161719e+05
    1.1798983067e-01    1.0123160156e+05
    1.1799994856e-01    1.0123160156e+05
    1.1800976843e-01    1.0123159375e+05
    1.1801988631e-01    1.0123158594e+05
    1.1802970618e-01    1.0123158594e+05
    1.1803982407e-01    1.0123157031e+05
    1.1804994196e-01    1.0123156250e+05
    1.1805976182e-01    1.0123155469e+05
    1.1806987226e-01    1.0123153906e+05
    1.1807999015e-01    1.0123153906e+05
    1.1808981001e-01    1.0123153125e+05
    1.1809992790e-01    1.0123152344e+05
    1.1810974777e-01    1.0123152344e+05
    1.1811986566e-01    1.0123150781e+05
    1.1812998354e-01    1.0123149219e+05
    1.1813980341e-01    1.0123147656e+05
    1.1814991385e-01    1.0123147656e+05
    1.1815973371e-01    1.0123146875e+05
    1.1816985160e-01    1.0123146094e+05
    1.1817996949e-01    1.0123144531e+05
    1.1818978935e-01    1.0123143750e+05
    1.1819990724e-01    1.0123142969e+05
    1.1820972711e-01    1.0123141406e+05
    1.1821984500e-01    1.0123141406e+05
    1.1822996289e-01    1.0123140625e+05
    1.1823977530e-01    1.0123139844e+05
    1.1824989319e-01    1.0123139844e+05
    1.1825971305e-01    1.0123139844e+05
    1.1826983094e-01    1.0123138281e+05
    1.1827994883e-01    1.0123137500e+05
    1.1828976870e-01    1.0123136719e+05
    1.1829988658e-01    1.0123135156e+05
    1.1830970645e-01    1.0123135156e+05
    1.1831981689e-01    1.0123134375e+05
    1.1832993478e-01    1.0123134375e+05
    1.1833975464e-01    1.0123133594e+05
    1.1834987253e-01    1.0123133594e+05
    1.1835999042e-01    1.0123132031e+05
    1.1836981028e-01    1.0123131250e+05
    1.1837992817e-01    1.0123130469e+05
    1.1838974804e-01    1.0123128906e+05
    1.1839986593e-01    1.0123128906e+05
    1.1840997636e-01    1.0123128125e+05
    1.1841979623e-01    1.0123127344e+05
    1.1842991412e-01    1.0123125781e+05
    1.1843973398e-01    1.0123125000e+05
    1.1844985187e-01    1.0123124219e+05
    1.1845996976e-01    1.0123122656e+05
    1.1846978962e-01    1.0123122656e+05
    1.1847990751e-01    1.0123121875e+05
    1.1848971993e-01    1.0123121094e+05
    1.1849983782e-01    1.0123121094e+05
    1.1850995570e-01    1.0123119531e+05
    1.1851977557e-01    1.0123118750e+05
    1.1852989346e-01    1.0123117969e+05
    1.1853971332e-01    1.0123116406e+05
    1.1854983121e-01    1.0123116406e+05
    1.1855994910e-01    1.0123115625e+05
    1.1856976897e-01    1.0123114844e+05
    1.1857987940e-01    1.0123114844e+05
    1.1858999729e-01    1.0123113281e+05
    1.1859981716e-01    1.0123111719e+05
    1.1860993505e-01    1.0123110156e+05
    1.1861975491e-01    1.0123109375e+05
    1.1862987280e-01    1.0123108594e+05
    1.1863999069e-01    1.0123108594e+05
    1.1864981055e-01    1.0123106250e+05
    1.1865992099e-01    1.0123105469e+05
    1.1866974086e-01    1.0123105469e+05
    1.1867985874e-01    1.0123103906e+05
    1.1868997663e-01    1.0123103906e+05
    1.1869979650e-01    1.0123103125e+05
    1.1870991439e-01    1.0123102344e+05
    1.1871973425e-01    1.0123102344e+05
    1.1872985214e-01    1.0123102344e+05
    1.1873996258e-01    1.0123100781e+05
    1.1874978244e-01    1.0123100000e+05
    1.1875990033e-01    1.0123099219e+05
    1.1876972020e-01    1.0123097656e+05
    1.1877983809e-01    1.0123097656e+05
    1.1878995597e-01    1.0123096875e+05
    1.1879977584e-01    1.0123096094e+05
    1.1880989373e-01    1.0123096094e+05
    1.1881971359e-01    1.0123094531e+05
    1.1882982403e-01    1.0123093750e+05
    1.1883994192e-01    1.0123092969e+05
    1.1884976178e-01    1.0123091406e+05
    1.1885987967e-01    1.0123091406e+05
    1.1886999756e-01    1.0123090625e+05
    1.1887981743e-01    1.0123089844e+05
    1.1888993531e-01    1.0123089844e+05
    1.1889975518e-01    1.0123089844e+05
    1.1890986562e-01    1.0123088281e+05
    1.1891998351e-01    1.0123087500e+05
    1.1892980337e-01    1.0123086719e+05
    1.1893992126e-01    1.0123085156e+05
    1.1894974113e-01    1.0123085156e+05
    1.1895985901e-01    1.0123083594e+05
    1.1896997690e-01    1.0123083594e+05
    1.1897979677e-01    1.0123082031e+05
    1.1898990721e-01    1.0123081250e+05
    1.1899972707e-01    1.0123081250e+05
    1.1900984496e-01    1.0123080469e+05
    1.1901996285e-01    1.0123078906e+05
    1.1902978271e-01    1.0123078906e+05
    1.1903990060e-01    1.0123078125e+05
    1.1904972047e-01    1.0123077344e+05
    1.1905983835e-01    1.0123077344e+05
    1.1906995624e-01    1.0123075781e+05
    1.1907976866e-01    1.0123075000e+05
    1.1908988655e-01    1.0123074219e+05
    1.1909970641e-01    1.0123072656e+05
    1.1910982430e-01    1.0123072656e+05
    1.1911994219e-01    1.0123071875e+05
    1.1912976205e-01    1.0123071094e+05
    1.1913987994e-01    1.0123069531e+05
    1.1914999783e-01    1.0123068750e+05
    1.1915981770e-01    1.0123067969e+05
    1.1916992813e-01    1.0123066406e+05
    1.1917974800e-01    1.0123066406e+05
    1.1918986589e-01    1.0123065625e+05
    1.1919998378e-01    1.0123064844e+05
    1.1920980364e-01    1.0123064844e+05
    1.1921992153e-01    1.0123063281e+05
    1.1922974139e-01    1.0123062500e+05
    1.1923985928e-01    1.0123061719e+05
    1.1924996972e-01    1.0123060156e+05
    1.1925978959e-01    1.0123060156e+05
    1.1926990747e-01    1.0123059375e+05
    1.1927972734e-01    1.0123058594e+05
    1.1928984523e-01    1.0123057031e+05
    1.1929996312e-01    1.0123056250e+05
    1.1930978298e-01    1.0123055469e+05
    1.1931990087e-01    1.0123053906e+05
    1.1932972074e-01    1.0123053906e+05
    1.1933983117e-01    1.0123052344e+05
    1.1934994906e-01    1.0123052344e+05
    1.1935976893e-01    1.0123050781e+05
    1.1936988682e-01    1.0123050000e+05
    1.1937970668e-01    1.0123049219e+05
    1.1938982457e-01    1.0123047656e+05
    1.1939994246e-01    1.0123047656e+05
    1.1940976232e-01    1.0123046875e+05
    1.1941987276e-01    1.0123046094e+05
    1.1942999065e-01    1.0123046094e+05
    1.1943981051e-01    1.0123043750e+05
    1.1944992840e-01    1.0123042969e+05
    1.1945974827e-01    1.0123041406e+05
    1.1946986616e-01    1.0123041406e+05
    1.1947998405e-01    1.0123040625e+05
    1.1948980391e-01    1.0123039844e+05
    1.1949991435e-01    1.0123038281e+05
    1.1950973421e-01    1.0123037500e+05
    1.1951985210e-01    1.0123036719e+05
    1.1952996999e-01    1.0123035156e+05
    1.1953978986e-01    1.0123035156e+05
    1.1954990774e-01    1.0123034375e+05
    1.1955972761e-01    1.0123033594e+05
    1.1956984550e-01    1.0123032031e+05
    1.1957996339e-01    1.0123031250e+05
    1.1958977580e-01    1.0123030469e+05
    1.1959989369e-01    1.0123028906e+05
    1.1960971355e-01    1.0123028906e+05
    1.1961983144e-01    1.0123028125e+05
    1.1962994933e-01    1.0123027344e+05
    1.1963976920e-01    1.0123027344e+05
    1.1964988708e-01    1.0123025781e+05
    1.1965970695e-01    1.0123025000e+05
    1.1966981739e-01    1.0123024219e+05
    1.1967993528e-01    1.0123022656e+05
    1.1968975514e-01    1.0123022656e+05
    1.1969987303e-01    1.0123021875e+05
    1.1970999092e-01    1.0123021094e+05
    1.1971981078e-01    1.0123021094e+05
    1.1972992867e-01    1.0123019531e+05
    1.1973974854e-01    1.0123018750e+05
    1.1974986643e-01    1.0123017969e+05
    1.1975997686e-01    1.0123016406e+05
    1.1976979673e-01    1.0123016406e+05
    1.1977991462e-01    1.0123015625e+05
    1.1978973448e-01    1.0123014844e+05
    1.1979985237e-01    1.0123014844e+05
    1.1980997026e-01    1.0123013281e+05
    1.1981979012e-01    1.0123012500e+05
    1.1982990801e-01    1.0123011719e+05
    1.1983972043e-01    1.0123010156e+05
    1.1984983832e-01    1.0123009375e+05
    1.1985995620e-01    1.0123008594e+05
    1.1986977607e-01    1.0123008594e+05
    1.1987989396e-01    1.0123007031e+05
    1.1988971382e-01    1.0123006250e+05
    1.1989983171e-01    1.0123005469e+05
    1.1990994960e-01    1.0123003906e+05
    1.1991976947e-01    1.0123003906e+05
    1.1992987990e-01    1.0123003125e+05
    1.1993999779e-01    1.0123002344e+05
    1.1994981766e-01    1.0123002344e+05
    1.1995993555e-01    1.0123000781e+05
    1.1996975541e-01    1.0123000000e+05
    1.1997987330e-01    1.0122999219e+05
    1.1998999119e-01    1.0122997656e+05
    1.1999981105e-01    1.0122997656e+05
endcurve
