Curveplot
LS-DYNA keyword deck by LS-PrePost                          
Time
Pressure
Defined Connection
Pressure @ 13 #pts=12001
* Minval=     8.2250000000e+04 at time=         0.0193699449
* Maxval=     2.0635795312e+05 at time=         0.0085299583
    0.0000000000e+00    1.0120000000e+05
    9.9485332612e-06    1.0120000000e+05
    1.9897408492e-05    1.0120000000e+05
    2.9986773370e-05    1.0120000000e+05
    3.9981568989e-05    1.0120000000e+05
    4.9988942919e-05    1.0120000000e+05
    5.9980033257e-05    1.0120000000e+05
    6.9947134762e-05    1.0120000000e+05
    7.9966317571e-05    1.0120000000e+05
    8.9992499852e-05    1.0120000000e+05
    9.9964614492e-05    1.0120000000e+05
    1.0994055629e-04    1.0120000000e+05
    1.1997588445e-04    1.0120000000e+05
    1.2999259343e-04    1.0120000000e+05
    1.3997990754e-04    1.0120000000e+05
    1.4992844081e-04    1.0120000000e+05
    1.5998170420e-04    1.0120000000e+05
    1.6998028150e-04    1.0120000000e+05
    1.7999329430e-04    1.0120000000e+05
    1.8993324193e-04    1.0120000000e+05
    1.9995303592e-04    1.0120000000e+05
    2.0996606327e-04    1.0120000000e+05
    2.1996561554e-04    1.0120000000e+05
    2.2994411120e-04    1.0120000000e+05
    2.3998152756e-04    1.0120000000e+05
    2.4998586741e-04    1.0120000000e+05
    2.5995002943e-04    1.0120000000e+05
    2.6995679946e-04    1.0120000000e+05
    2.7991016395e-04    1.0120000000e+05
    2.8998882044e-04    1.0120000000e+05
    2.9990874464e-04    1.0120000000e+05
    3.0994042754e-04    1.0120000000e+05
    3.1997787300e-04    1.0120000000e+05
    3.2991662738e-04    1.0120000000e+05
    3.3995253034e-04    1.0120000000e+05
    3.4998563933e-04    1.0120000000e+05
    3.5991441109e-04    1.0120000000e+05
    3.6993244430e-04    1.0120000000e+05
    3.7994541344e-04    1.0120000000e+05
    3.8994851639e-04    1.0120000000e+05
    3.9993997780e-04    1.0120000000e+05
    4.0991633432e-04    1.0120000000e+05
    4.1998489178e-04    1.0120000000e+05
    4.2993246461e-04    1.0120000000e+05
    4.3996894965e-04    1.0120000000e+05
    4.4998637168e-04    1.0120000000e+05
    4.5998443966e-04    1.0120000000e+05
    4.6996196033e-04    1.0120000000e+05
    4.7991651809e-04    1.0120000000e+05
    4.8995844554e-04    1.0120000000e+05
    4.9997394672e-04    1.0120000000e+05
    5.0996500067e-04    1.0120000000e+05
    5.1992782392e-04    1.0120000000e+05
    5.2997679450e-04    1.0120000000e+05
    5.3999590455e-04    1.0120000000e+05
    5.4997910047e-04    1.0120000000e+05
    5.5993301794e-04    1.0120000000e+05
    5.6997151114e-04    1.0120000000e+05
    5.7997490512e-04    1.0120000000e+05
    5.8994127903e-04    1.0120000000e+05
    5.9999187943e-04    1.0120000000e+05
    6.0987728648e-04    1.0120000000e+05
    6.1997264856e-04    1.0120000000e+05
    6.2990136212e-04    1.0120000000e+05
    6.3991284696e-04    1.0120000000e+05
    6.4987991937e-04    1.0120000000e+05
    6.5992999589e-04    1.0120000000e+05
    6.6993111977e-04    1.0120000000e+05
    6.7988655064e-04    1.0120000000e+05
    6.8992411252e-04    1.0120000000e+05
    6.9991132477e-04    1.0120000000e+05
    7.0998095907e-04    1.0120000000e+05
    7.1999814827e-04    1.0120000000e+05
    7.2995788651e-04    1.0120000000e+05
    7.3986372445e-04    1.0120000000e+05
    7.4998912169e-04    1.0120000000e+05
    7.5991731137e-04    1.0120000000e+05
    7.6992559480e-04    1.0120000000e+05
    7.7987264376e-04    1.0120000000e+05
    7.8989972826e-04    1.0120000000e+05
    7.9986295896e-04    1.0120000000e+05
    8.0990273273e-04    1.0120000000e+05
    8.1987964222e-04    1.0120000000e+05
    8.2993623801e-04    1.0120000000e+05
    8.3992391592e-04    1.0120000000e+05
    8.4999104729e-04    1.0120000000e+05
    8.5998664144e-04    1.0120000000e+05
    8.6990807904e-04    1.0120000000e+05
    8.7990728207e-04    1.0120000000e+05
    8.8998512365e-04    1.0120000000e+05
    8.9998176554e-04    1.0120000000e+05
    9.0990256285e-04    1.0120000000e+05
    9.1990013607e-04    1.0120000000e+05
    9.2997547472e-04    1.0120000000e+05
    9.3996769283e-04    1.0120000000e+05
    9.4987411285e-04    1.0120000000e+05
    9.5985602820e-04    1.0120000000e+05
    9.6991448663e-04    1.0120000000e+05
    9.7988347989e-04    1.0120000000e+05
    9.8992814310e-04    1.0120000000e+05
    9.9988002330e-04    1.0120000000e+05
    1.0099069914e-03    1.0120000000e+05
    1.0198346572e-03    1.0120000000e+05
    1.0298372945e-03    1.0120000000e+05
    1.0399172315e-03    1.0120000000e+05
    1.0498974007e-03    1.0120000000e+05
    1.0599517263e-03    1.0120000000e+05
    1.0699025588e-03    1.0120000000e+05
    1.0799265001e-03    1.0120000000e+05
    1.0898434557e-03    1.0120000000e+05
    1.0998325888e-03    1.0120000000e+05
    1.1098945979e-03    1.0120000000e+05
    1.1198455468e-03    1.0120000000e+05
    1.1298683239e-03    1.0120000000e+05
    1.1399640935e-03    1.0120000000e+05
    1.1499442626e-03    1.0120000000e+05
    1.1599961435e-03    1.0120000000e+05
    1.1699291645e-03    1.0120000000e+05
    1.1799302883e-03    1.0120000000e+05
    1.1899985839e-03    1.0120000000e+05
    1.1999420822e-03    1.0120000000e+05
    1.2099626474e-03    1.0120000000e+05
    1.2198578333e-03    1.0120000000e+05
    1.2298222864e-03    1.0120000000e+05
    1.2398570543e-03    1.0120000000e+05
    1.2499630684e-03    1.0120000000e+05
    1.2599368347e-03    1.0120000000e+05
    1.2699804502e-03    1.0120000000e+05
    1.2798878597e-03    1.0120000000e+05
    1.2898641871e-03    1.0120000000e+05
    1.2999103637e-03    1.0120000000e+05
    1.3098155614e-03    1.0120000000e+05
    1.3197892113e-03    1.0120000000e+05
    1.3298323611e-03    1.0120000000e+05
    1.3399458257e-03    1.0120000000e+05
    1.3499127235e-03    1.0120000000e+05
    1.3599488884e-03    1.0120000000e+05
    1.3698345283e-03    1.0120000000e+05
    1.3797879219e-03    1.0120000000e+05
    1.3898101170e-03    1.0120000000e+05
    1.3999019284e-03    1.0120000000e+05
    1.4098376269e-03    1.0120000000e+05
    1.4198409626e-03    1.0120000000e+05
    1.4299144968e-03    1.0120000000e+05
    1.4398256317e-03    1.0120000000e+05
    1.4498059172e-03    1.0120000000e+05
    1.4598539565e-03    1.0120000000e+05
    1.4699710300e-03    1.0120000000e+05
    1.4799212804e-03    1.0120000000e+05
    1.4899400994e-03    1.0120000000e+05
    1.4997869730e-03    1.0120000000e+05
    1.5099430457e-03    1.0120000000e+05
    1.5199256595e-03    1.0120000000e+05
    1.5299783554e-03    1.0120000000e+05
    1.5398527030e-03    1.0120000000e+05
    1.5497932909e-03    1.0120000000e+05
    1.5598032624e-03    1.0120000000e+05
    1.5698814532e-03    1.0120000000e+05
    1.5797750093e-03    1.0120000000e+05
    1.5899930149e-03    1.0120000000e+05
    1.5997665469e-03    1.0120000000e+05
    1.6098656924e-03    1.0120000000e+05
    1.6197735677e-03    1.0120000000e+05
    1.6297491966e-03    1.0120000000e+05
    1.6397935105e-03    1.0120000000e+05
    1.6499074409e-03    1.0120000000e+05
    1.6598235816e-03    1.0120000000e+05
    1.6698075924e-03    1.0120000000e+05
    1.6798604047e-03    1.0120000000e+05
    1.6899836482e-03    1.0120000000e+05
    1.6999013023e-03    1.0120000000e+05
    1.7098871758e-03    1.0120000000e+05
    1.7199425492e-03    1.0120000000e+05
    1.7297859304e-03    1.0120000000e+05
    1.7399810022e-03    1.0120000000e+05
    1.7499622190e-03    1.0120000000e+05
    1.7597249243e-03    1.0120000000e+05
    1.7698442098e-03    1.0120000000e+05
    1.7797430046e-03    1.0120000000e+05
    1.7897103680e-03    1.0120000000e+05
    1.7997412942e-03    1.0120000000e+05
    1.8098441651e-03    1.0120000000e+05
    1.8197143218e-03    1.0120000000e+05
    1.8299643416e-03    1.0120000000e+05
    1.8399843248e-03    1.0120000000e+05
    1.8497682177e-03    1.0120000000e+05
    1.8599290634e-03    1.0120000000e+05
    1.8698518397e-03    1.0120000000e+05
    1.8798446981e-03    1.0120000000e+05
    1.8899084534e-03    1.0120000000e+05
    1.8997265724e-03    1.0120000000e+05
    1.9099337514e-03    1.0120000000e+05
    1.9198929658e-03    1.0120000000e+05
    1.9299233099e-03    1.0120000000e+05
    1.9396991702e-03    1.0120000000e+05
    1.9498731708e-03    1.0120000000e+05
    1.9597897772e-03    1.0120000000e+05
    1.9697779790e-03    1.0120000000e+05
    1.9798383582e-03    1.0120000000e+05
    1.9899723120e-03    1.0120000000e+05
    1.9998396747e-03    1.0120000000e+05
    2.0097740926e-03    1.0120000000e+05
    2.0197823178e-03    1.0120000000e+05
    2.0298666786e-03    1.0120000000e+05
    2.0396742038e-03    1.0120000000e+05
    2.0499071106e-03    1.0120000000e+05
    2.0598606206e-03    1.0120000000e+05
    2.0698877051e-03    1.0120000000e+05
    2.0799897611e-03    1.0120000000e+05
    2.0898028743e-03    1.0120000000e+05
    2.0996883977e-03    1.0120000000e+05
    2.1096472628e-03    1.0120000000e+05
    2.1196806338e-03    1.0120000000e+05
    2.1297903731e-03    1.0120000000e+05
    2.1399776451e-03    1.0120000000e+05
    2.1498622373e-03    1.0120000000e+05
    2.1598213352e-03    1.0120000000e+05
    2.1698512137e-03    1.0120000000e+05
    2.1799637470e-03    1.0120000000e+05
    2.1897619590e-03    1.0120000000e+05
    2.1996342111e-03    1.0120000000e+05
    2.2099816706e-03    1.0120000000e+05
    2.2196073551e-03    1.0120000000e+05
    2.2297112737e-03    1.0120000000e+05
    2.2398955189e-03    1.0120000000e+05
    2.2497491445e-03    1.0120000000e+05
    2.2596798372e-03    1.0120000000e+05
    2.2696892265e-03    1.0120000000e+05
    2.2797784768e-03    1.0120000000e+05
    2.2899471223e-03    1.0120000000e+05
    2.2997702472e-03    1.0120000000e+05
    2.3096725345e-03    1.0120000000e+05
    2.3196348920e-03    1.0120000000e+05
    2.3296503350e-03    1.0120000000e+05
    2.3397095501e-03    1.0120000000e+05
    2.3498074152e-03    1.0120000000e+05
    2.3599390406e-03    1.0120000000e+05
    2.3696487769e-03    1.0120000000e+05
    2.3798304610e-03    1.0120000000e+05
    2.3899993394e-03    1.0120000000e+05
    2.3997616954e-03    1.0120000000e+05
    2.4099799339e-03    1.0120000000e+05
    2.4197336752e-03    1.0120000000e+05
    2.4299570359e-03    1.0120000000e+05
    2.4397149682e-03    1.0120000000e+05
    2.4499185383e-03    1.0120000000e+05
    2.4596939329e-03    1.0120000000e+05
    2.4698949419e-03    1.0120000000e+05
    2.4796482176e-03    1.0120000000e+05
    2.4898529518e-03    1.0120000000e+05
    2.4995731656e-03    1.0120000000e+05
    2.5097839534e-03    1.0120000000e+05
    2.5199574884e-03    1.0120000000e+05
    2.5296907406e-03    1.0120000000e+05
    2.5398398284e-03    1.0120000000e+05
    2.5496240705e-03    1.0120000000e+05
    2.5597270578e-03    1.0120000000e+05
    2.5699250400e-03    1.0120000000e+05
    2.5796419941e-03    1.0120000000e+05
    2.5898083113e-03    1.0120000000e+05
    2.5999392383e-03    1.0120000000e+05
    2.6096773800e-03    1.0120000000e+05
    2.6198911946e-03    1.0120000000e+05
    2.6296880096e-03    1.0120000000e+05
    2.6399334893e-03    1.0120000000e+05
    2.6497421786e-03    1.0120000000e+05
    2.6595795061e-03    1.0120000000e+05
    2.6698678266e-03    1.0120000000e+05
    2.6797493920e-03    1.0120000000e+05
    2.6896421332e-03    1.0120000000e+05
    2.6999635156e-03    1.0120000000e+05
    2.7098732535e-03    1.0120000000e+05
    2.7197957970e-03    1.0120000000e+05
    2.7297171764e-03    1.0120000000e+05
    2.7396355290e-03    1.0120000000e+05
    2.7495599352e-03    1.0120000000e+05
    2.7599267196e-03    1.0120000000e+05
    2.7698178310e-03    1.0120000000e+05
    2.7797007933e-03    1.0120000000e+05
    2.7895660605e-03    1.0120000000e+05
    2.7998408768e-03    1.0120000000e+05
    2.8096414171e-03    1.0120000000e+05
    2.8198468499e-03    1.0120000000e+05
    2.8295661323e-03    1.0120000000e+05
    2.8396705166e-03    1.0120000000e+05
    2.8497094754e-03    1.0120000000e+05
    2.8596825432e-03    1.0120000000e+05
    2.8695897199e-03    1.0120000000e+05
    2.8798587155e-03    1.0120000000e+05
    2.8896352742e-03    1.0120000000e+05
    2.8997694608e-03    1.0120000000e+05
    2.9098340310e-03    1.0120000000e+05
    2.9198341072e-03    1.0120000000e+05
    2.9297687579e-03    1.0120000000e+05
    2.9396377504e-03    1.0120000000e+05
    2.9498501681e-03    1.0120000000e+05
    2.9599934351e-03    1.0120000000e+05
    2.9696670827e-03    1.0120000000e+05
    2.9796748422e-03    1.0120000000e+05
    2.9896178748e-03    1.0120000000e+05
    2.9998905957e-03    1.0120000000e+05
    3.0097016133e-03    1.0120000000e+05
    3.0198369641e-03    1.0120000000e+05
    3.0299038626e-03    1.0120000000e+05
    3.0399025418e-03    1.0120000000e+05
    3.0498316046e-03    1.0120000000e+05
    3.0596952420e-03    1.0120000000e+05
    3.0698692426e-03    1.0120000000e+05
    3.0799731612e-03    1.0120000000e+05
    3.0896365643e-03    1.0120000000e+05
    3.0999721494e-03    1.0120000000e+05
    3.1098686159e-03    1.0120000000e+05
    3.1196970958e-03    1.0120000000e+05
    3.1298187096e-03    1.0120000000e+05
    3.1398683786e-03    1.0120000000e+05
    3.1498470344e-03    1.0120000000e+05
    3.1597551424e-03    1.0120000000e+05
    3.1699433457e-03    1.0120000000e+05
    3.1797096599e-03    1.0120000000e+05
    3.1897523440e-03    1.0120000000e+05
    3.1997216865e-03    1.0120000000e+05
    3.2099578530e-03    1.0120000000e+05
    3.2197793480e-03    1.0120000000e+05
    3.2298641745e-03    1.0120000000e+05
    3.2398721669e-03    1.0120000000e+05
    3.2498044893e-03    1.0120000000e+05
    3.2599885017e-03    1.0120000000e+05
    3.2697678544e-03    1.0120000000e+05
    3.2797944732e-03    1.0120000000e+05
    3.2897414640e-03    1.0120000000e+05
    3.2999266405e-03    1.0120000000e+05
    3.3097136766e-03    1.0120000000e+05
    3.3197344746e-03    1.0120000000e+05
    3.3299813513e-03    1.0120000000e+05
    3.3398335800e-03    1.0120000000e+05
    3.3499069978e-03    1.0120000000e+05
    3.3598926384e-03    1.0120000000e+05
    3.3697909676e-03    1.0120000000e+05
    3.3798983786e-03    1.0120000000e+05
    3.3899138216e-03    1.0120000000e+05
    3.3998365980e-03    1.0120000000e+05
    3.4099554177e-03    1.0120000000e+05
    3.4199759830e-03    1.0120000000e+05
    3.4298994578e-03    1.0120000000e+05
    3.4397249110e-03    1.0120000000e+05
    3.4497298766e-03    1.0120000000e+05
    3.4599045757e-03    1.0120000000e+05
    3.4699700773e-03    1.0120000000e+05
    3.4799252171e-03    1.0120000000e+05
    3.4897706937e-03    1.0120000000e+05
    3.4997668117e-03    1.0120000000e+05
    3.5099047236e-03    1.0120000000e+05
    3.5199185368e-03    1.0120000000e+05
    3.5298077855e-03    1.0120000000e+05
    3.5398202017e-03    1.0120000000e+05
    3.5499453079e-03    1.0120000000e+05
    3.5599288531e-03    1.0120000000e+05
    3.5697703715e-03    1.0120000000e+05
    3.5799376201e-03    1.0120000000e+05
    3.5899444483e-03    1.0120000000e+05
    3.5997892264e-03    1.0120000000e+05
    3.6099152640e-03    1.0120000000e+05
    3.6198582966e-03    1.0120000000e+05
    3.6298290361e-03    1.0120000000e+05
    3.6398109514e-03    1.0120000000e+05
    3.6499910057e-03    1.0120000000e+05
    3.6599333398e-03    1.0120000000e+05
    3.6698267795e-03    1.0120000000e+05
    3.6798368674e-03    1.0120000000e+05
    3.6899188999e-03    1.0120000000e+05
    3.6998449359e-03    1.0120000000e+05
    3.7099183537e-03    1.0120000000e+05
    3.7198860664e-03    1.0120000000e+05
    3.7299715914e-03    1.0120000000e+05
    3.7398659624e-03    1.0120000000e+05
    3.7499000318e-03    1.0120000000e+05
    3.7599289790e-03    1.0120000000e+05
    3.7699441891e-03    1.0120000000e+05
    3.7799293641e-03    1.0120000000e+05
    3.7899171002e-03    1.0120000000e+05
    3.7998654880e-03    1.0120000000e+05
    3.8099389058e-03    1.0120000000e+05
    3.8199424744e-03    1.0120000000e+05
    3.8299951702e-03    1.0120000000e+05
    3.8398867473e-03    1.0120000000e+05
    3.8498316426e-03    1.0120000000e+05
    3.8599332329e-03    1.0120000000e+05
    3.8699575234e-03    1.0120000000e+05
    3.8799291942e-03    1.0120000000e+05
    3.8898617495e-03    1.0120000000e+05
    3.8999554235e-03    1.0120000000e+05
    3.9099161513e-03    1.0120000000e+05
    3.9198319428e-03    1.0120000000e+05
    3.9298324846e-03    1.0120000000e+05
    3.9399424568e-03    1.0120000000e+05
    3.9499145932e-03    1.0120000000e+05
    3.9598164149e-03    1.0120000000e+05
    3.9699617773e-03    1.0120000000e+05
    3.9798123762e-03    1.0120000000e+05
    3.9899069816e-03    1.0120000000e+05
    3.9998786524e-03    1.0120000000e+05
    4.0099001490e-03    1.0120000000e+05
    4.0199984796e-03    1.0120000000e+05
    4.0299487300e-03    1.0120000000e+05
    4.0399543941e-03    1.0120000000e+05
    4.0498147719e-03    1.0120000000e+05
    4.0599200875e-03    1.0120000000e+05
    4.0698861703e-03    1.0120000000e+05
    4.0798773989e-03    1.0120000000e+05
    4.0899435990e-03    1.0120000000e+05
    4.0998174809e-03    1.0120000000e+05
    4.1099693626e-03    1.0120000000e+05
    4.1199345142e-03    1.0120000000e+05
    4.1299588047e-03    1.0120000000e+05
    4.1398131289e-03    1.0120000000e+05
    4.1499054059e-03    1.0120000000e+05
    4.1598500684e-03    1.0120000000e+05
    4.1697886772e-03    1.0120000000e+05
    4.1798111051e-03    1.0120000000e+05
    4.1898251511e-03    1.0120000000e+05
    4.1999104433e-03    1.0120000000e+05
    4.2098043486e-03    1.0120000000e+05
    4.2199362069e-03    1.0120000000e+05
    4.2299246415e-03    1.0120000000e+05
    4.2398818769e-03    1.0120000000e+05
    4.2499448173e-03    1.0120000000e+05
    4.2599826120e-03    1.0120000000e+05
    4.2698541656e-03    1.0120000000e+05
    4.2799967341e-03    1.0120000000e+05
    4.2898915708e-03    1.0120000000e+05
    4.2999004945e-03    1.0120000000e+05
    4.3098544702e-03    1.0120000000e+05
    4.3198880740e-03    1.0120000000e+05
    4.3299417011e-03    1.0120000000e+05
    4.3399971910e-03    1.0120000000e+05
    4.3499134481e-03    1.0120000000e+05
    4.3598110788e-03    1.0120000000e+05
    4.3699815869e-03    1.0120000000e+05
    4.3799644336e-03    1.0120000000e+05
    4.3899617158e-03    1.0120000000e+05
    4.3997811154e-03    1.0120000000e+05
    4.4098291546e-03    1.0120000000e+05
    4.4199237600e-03    1.0120000000e+05
    4.4298181310e-03    1.0120000000e+05
    4.4399583712e-03    1.0120000000e+05
    4.4498988427e-03    1.0120000000e+05
    4.4598584063e-03    1.0120000000e+05
    4.4698482379e-03    1.0120000000e+05
    4.4798622839e-03    1.0120000000e+05
    4.4898968190e-03    1.0120000000e+05
    4.4999476522e-03    1.0120000000e+05
    4.5097866096e-03    1.0120000000e+05
    4.5198849402e-03    1.0120000000e+05
    4.5297653414e-03    1.0120000000e+05
    4.5399004593e-03    1.0120000000e+05
    4.5498162508e-03    1.0120000000e+05
    4.5599825680e-03    1.0120000000e+05
    4.5699304901e-03    1.0120000000e+05
    4.5798970386e-03    1.0120000000e+05
    4.5898775570e-03    1.0120000000e+05
    4.5998701826e-03    1.0120000000e+05
    4.6098772436e-03    1.0120000000e+05
    4.6198922209e-03    1.0120000000e+05
    4.6299220994e-03    1.0120000000e+05
    4.6399622224e-03    1.0120000000e+05
    4.6497737058e-03    1.0120000000e+05
    4.6598282643e-03    1.0120000000e+05
    4.6698944643e-03    1.0120000000e+05
    4.6799639240e-03    1.0120000000e+05
    4.6897982247e-03    1.0120000000e+05
    4.6998756006e-03    1.0120000000e+05
    4.7099534422e-03    1.0120000000e+05
    4.7197923996e-03    1.0120000000e+05
    4.7298711725e-03    1.0120000000e+05
    4.7399504110e-03    1.0120000000e+05
    4.7497898340e-03    1.0120000000e+05
    4.7598695382e-03    1.0120000000e+05
    4.7699487768e-03    1.0120000000e+05
    4.7797881998e-03    1.0120000000e+05
    4.7898674384e-03    1.0120000000e+05
    4.7999462113e-03    1.0120000000e+05
    4.8097842373e-03    1.0120000000e+05
    4.8198625445e-03    1.0120000000e+05
    4.8299399205e-03    1.0120000000e+05
    4.8397770151e-03    1.0120000000e+05
    4.8498534597e-03    1.0120000000e+05
    4.8599289730e-03    1.0120000000e+05
    4.8697646707e-03    1.0120000000e+05
    4.8798392527e-03    1.0120000000e+05
    4.8899129033e-03    1.0120000000e+05
    4.8999856226e-03    1.0120000000e+05
    4.9098175950e-03    1.0120000000e+05
    4.9198884517e-03    1.0120000000e+05
    4.9299583770e-03    1.0120000000e+05
    4.9397866242e-03    1.0120000000e+05
    4.9498551525e-03    1.0120000000e+05
    4.9599232152e-03    1.0120000000e+05
    4.9699917436e-03    1.0120000000e+05
    4.9798246473e-03    1.0120000000e+05
    4.9899020232e-03    1.0120000000e+05
    4.9999835901e-03    1.0120000000e+05
    5.0098332576e-03    1.0120000000e+05
    5.0199320540e-03    1.0120000000e+05
    5.0297984853e-03    1.0120000000e+05
    5.0399112515e-03    1.0120000000e+05
    5.0497935154e-03    1.0120000000e+05
    5.0599258393e-03    1.0120000000e+05
    5.0698230043e-03    1.0120000000e+05
    5.0799674354e-03    1.0120000000e+05
    5.0898832269e-03    1.0120000000e+05
    5.0998046063e-03    1.0120000000e+05
    5.1099755801e-03    1.0120000000e+05
    5.1199141890e-03    1.0120000000e+05
    5.1298607141e-03    1.0120000000e+05
    5.1398128271e-03    1.0120000000e+05
    5.1497714594e-03    1.0120000000e+05
    5.1599866711e-03    1.0120000000e+05
    5.1699597389e-03    1.0120000000e+05
    5.1799407229e-03    1.0120000000e+05
    5.1899291575e-03    1.0120000000e+05
    5.1999283023e-03    1.0120000000e+05
    5.2099251188e-03    1.0120000000e+05
    5.2199373022e-03    1.0120000000e+05
    5.2299555391e-03    1.0120000000e+05
    5.2399821579e-03    1.0120000000e+05
    5.2497587167e-03    1.0120000000e+05
    5.2598011680e-03    1.0120000000e+05
    5.2698440850e-03    1.0120000000e+05
    5.2798921242e-03    1.0120000000e+05
    5.2899401635e-03    1.0120000000e+05
    5.2997632883e-03    1.0120000000e+05
    5.3098308854e-03    1.0120000000e+05
    5.3199031390e-03    1.0120000000e+05
    5.3299842402e-03    1.0120000000e+05
    5.3398236632e-03    1.0120000000e+05
    5.3499173373e-03    1.0120000000e+05
    5.3597651422e-03    1.0120000000e+05
    5.3698751144e-03    1.0120000000e+05
    5.3799748421e-03    1.0120000000e+05
    5.3898515180e-03    1.0120000000e+05
    5.3999722004e-03    1.0120000000e+05
    5.4098619148e-03    1.0120000000e+05
    5.4199867882e-03    1.0120000000e+05
    5.4298881441e-03    1.0120000000e+05
    5.4397867061e-03    1.0120000000e+05
    5.4499469697e-03    1.0120000000e+05
    5.4598473944e-03    1.0120000000e+05
    5.4697706364e-03    1.0120000000e+05
    5.4799425416e-03    1.0120000000e+05
    5.4898760282e-03    1.0120000000e+05
    5.4998029955e-03    1.0120000000e+05
    5.5099925958e-03    1.0120000000e+05
    5.5199386552e-03    1.0120000000e+05
    5.5298930965e-03    1.0120000000e+05
    5.5398452096e-03    1.0120000000e+05
    5.5498043075e-03    1.0120000000e+05
    5.5597722530e-03    1.0120000000e+05
    5.5699981749e-03    1.0120000000e+05
    5.5799791589e-03    1.0120000000e+05
    5.5899610743e-03    1.0120000000e+05
    5.5999495089e-03    1.0120000000e+05
    5.6099439971e-03    1.0120000000e+05
    5.6199459359e-03    1.0120000000e+05
    5.6299483404e-03    1.0120000000e+05
    5.6399572641e-03    1.0120000000e+05
    5.6499717757e-03    1.0120000000e+05
    5.6599928066e-03    1.0120000000e+05
    5.6697647087e-03    1.0120000000e+05
    5.6797936559e-03    1.0120000000e+05
    5.6898249313e-03    1.0120000000e+05
    5.6998645887e-03    1.0120000000e+05
    5.7099065743e-03    1.0120000000e+05
    5.7199532166e-03    1.0120000000e+05
    5.7297516614e-03    1.0120000000e+05
    5.7398080826e-03    1.0120000000e+05
    5.7498677634e-03    1.0120000000e+05
    5.7599334978e-03    1.0120000000e+05
    5.7697477750e-03    1.0120000000e+05
    5.7798200287e-03    1.0120000000e+05
    5.7898936793e-03    1.0120000000e+05
    5.7999752462e-03    1.0120000000e+05
    5.8098137379e-03    1.0120000000e+05
    5.8199102059e-03    1.0120000000e+05
    5.8297510259e-03    1.0120000000e+05
    5.8398419060e-03    1.0120000000e+05
    5.8499332517e-03    1.0120000000e+05
    5.8597880416e-03    1.0120000000e+05
    5.8699054644e-03    1.0120000000e+05
    5.8797691017e-03    1.0120000000e+05
    5.8898832649e-03    1.0120000000e+05
    5.8999946341e-03    1.0120000000e+05
    5.9098517522e-03    1.0120000000e+05
    5.9199621901e-03    1.0120000000e+05
    5.9298267588e-03    1.0120000000e+05
    5.9399534948e-03    1.0120000000e+05
    5.9498259798e-03    1.0120000000e+05
    5.9599485248e-03    1.0120000000e+05
    5.9698163532e-03    1.0120000000e+05
    5.9799365699e-03    1.0120000000e+05
    5.9898034669e-03    1.0120000000e+05
    5.9999218211e-03    1.0120000000e+05
    6.0097891837e-03    1.0120000000e+05
    6.0199126601e-03    1.0120000000e+05
    6.0297865421e-03    1.0120000000e+05
    6.0399160720e-03    1.0120000000e+05
    6.0497918166e-03    1.0120000000e+05
    6.0599190183e-03    1.0120000000e+05
    6.0697919689e-03    1.0120000000e+05
    6.0799173079e-03    1.0120000000e+05
    6.0897893272e-03    1.0120000000e+05
    6.0999146663e-03    1.0120000000e+05
    6.1097866856e-03    1.0120000000e+05
    6.1199115589e-03    1.0120000000e+05
    6.1297831126e-03    1.0120000000e+05
    6.1399075203e-03    1.0120000000e+05
    6.1497786082e-03    1.0120000000e+05
    6.1599025503e-03    1.0120000000e+05
    6.1697731726e-03    1.0120000000e+05
    6.1798961833e-03    1.0120000000e+05
    6.1897663400e-03    1.0120000000e+05
    6.1998888850e-03    1.0120000000e+05
    6.2097581103e-03    1.0120000000e+05
    6.2198801897e-03    1.0120000000e+05
    6.2297494151e-03    1.0120000000e+05
    6.2398710288e-03    1.0120000000e+05
    6.2499926426e-03    1.0120000000e+05
    6.2598618679e-03    1.0120000000e+05
    6.2699853443e-03    1.0120000000e+05
    6.2798568979e-03    1.0120000000e+05
    6.2899813056e-03    1.0120000000e+05
    6.2998509966e-03    1.0120000000e+05
    6.3099726103e-03    1.0120000000e+05
    6.3198404387e-03    1.0120000000e+05
    6.3299606554e-03    1.0120000000e+05
    6.3398270868e-03    1.0120000000e+05
    6.3499468379e-03    1.0120000000e+05
    6.3598155975e-03    1.0120000000e+05
    6.3699409366e-03    1.0120000000e+05
    6.3798138872e-03    1.0120000000e+05
    6.3899392262e-03    1.0120000000e+05
    6.3998112455e-03    1.0120000000e+05
    6.4099351875e-03    1.0120000000e+05
    6.4198048785e-03    1.0120000000e+05
    6.4299274236e-03    1.0120000000e+05
    6.4397957176e-03    1.0120000000e+05
    6.4499173313e-03    1.0120000000e+05
    6.4597916789e-03    1.0120000000e+05
    6.4699207433e-03    1.0120000000e+05
    6.4797946252e-03    1.0120000000e+05
    6.4899213612e-03    1.0120000000e+05
    6.4997938462e-03    1.0120000000e+05
    6.5099191852e-03    1.0120000000e+05
    6.5197958611e-03    1.0120000000e+05
    6.5299286507e-03    1.0120000000e+05
    6.5398067236e-03    1.0120000000e+05
    6.5499367192e-03    1.0120000000e+05
    6.5598133951e-03    1.0120000000e+05
    6.5699424595e-03    1.0120000000e+05
    6.5798228607e-03    1.0120000000e+05
    6.5899579786e-03    1.0120000000e+05
    6.5998383798e-03    1.0120000000e+05
    6.6099716350e-03    1.0120000000e+05
    6.6198501736e-03    1.0120000000e+05
    6.6299857572e-03    1.0120000000e+05
    6.6398708150e-03    1.0120000000e+05
    6.6497549415e-03    1.0120000000e+05
    6.6598914564e-03    1.0120000000e+05
    6.6697737202e-03    1.0120000000e+05
    6.6799120978e-03    1.0120000000e+05
    6.6897990182e-03    1.0120000000e+05
    6.6999383271e-03    1.0120000000e+05
    6.7098233849e-03    1.0120000000e+05
    6.7199617624e-03    1.0120000000e+05
    6.7298505455e-03    1.0120000000e+05
    6.7399921827e-03    1.0120000000e+05
    6.7498795688e-03    1.0120000000e+05
    6.7597664893e-03    1.0120000000e+05
    6.7699085921e-03    1.0120000000e+05
    6.7797983065e-03    1.0120000000e+05
    6.7899408750e-03    1.0120000000e+05
    6.7998296581e-03    1.0120000000e+05
    6.8099726923e-03    1.0120000000e+05
    6.8198628724e-03    1.0120000000e+05
    6.8297521211e-03    1.0120000000e+05
    6.8398951553e-03    1.0120000000e+05
    6.8497848697e-03    1.0120000000e+05
    6.8599283695e-03    1.0120000000e+05
    6.8698180839e-03    1.0120000000e+05
    6.8799606524e-03    1.0120000000e+05
    6.8898503669e-03    1.0120000000e+05
    6.8999938667e-03    1.0120000000e+05
    6.9098831154e-03    1.0120000000e+05
    6.9197723642e-03    1.0120000000e+05
    6.9299153984e-03    1.0120000000e+05
    6.9398041815e-03    1.0120000000e+05
    6.9499467500e-03    1.0120000000e+05
    6.9598350674e-03    1.0120000000e+05
    6.9699776359e-03    1.0120000000e+05
    6.9798659533e-03    1.0120000000e+05
    6.9897542708e-03    1.0120000000e+05
    6.9998959079e-03    1.0120000000e+05
    7.0097846910e-03    1.0120000000e+05
    7.0199263282e-03    1.0120000000e+05
    7.0298146456e-03    1.0120000000e+05
    7.0399562828e-03    1.0120000000e+05
    7.0498436689e-03    1.0120000000e+05
    7.0599848405e-03    1.0120000000e+05
    7.0698717609e-03    1.0120000000e+05
    7.0797591470e-03    1.0120000000e+05
    7.0899007842e-03    1.0120000000e+05
    7.0997914299e-03    1.0120000000e+05
    7.1099358611e-03    1.0120000000e+05
    7.1198265068e-03    1.0120000000e+05
    7.1299700066e-03    1.0120000000e+05
    7.1398592554e-03    1.0120000000e+05
    7.1497485042e-03    1.0120000000e+05
    7.1598906070e-03    1.0120000000e+05
    7.1697793901e-03    1.0120000000e+05
    7.1799219586e-03    1.0120000000e+05
    7.1898102760e-03    1.0120000000e+05
    7.1999519132e-03    1.0120000000e+05
    7.2098397650e-03    1.0120000000e+05
    7.2199814022e-03    1.0120000000e+05
    7.2298697196e-03    1.0120000000e+05
    7.2397594340e-03    1.0120000000e+05
    7.2499043308e-03    1.0120000000e+05
    7.2597959079e-03    1.0120000000e+05
    7.2699431330e-03    1.0120000000e+05
    7.2798407637e-03    1.0120000000e+05
    7.2899963707e-03    1.0120000000e+05
    7.2998995893e-03    1.0120000000e+05
    7.3098009452e-03    1.0120000000e+05
    7.3199598119e-03    1.0120000000e+05
    7.3298695497e-03    1.0120000000e+05
    7.3397839442e-03    1.0120000000e+05
    7.3499507271e-03    1.0120000000e+05
    7.3598595336e-03    1.0120000000e+05
    7.3697883636e-03    1.0120000000e+05
    7.3799854144e-03    1.0120000000e+05
    7.3899351992e-03    1.0120000000e+05
    7.3998863809e-03    1.0120000000e+05
    7.4098375626e-03    1.0120000000e+05
    7.4197878130e-03    1.0120000000e+05
    7.4299937114e-03    1.0120000000e+05
    7.4399472214e-03    1.0120000000e+05
    7.4499002658e-03    1.0120000000e+05
    7.4598542415e-03    1.0120000000e+05
    7.4698124081e-03    1.0120000000e+05
    7.4797719717e-03    1.0120000000e+05
    7.4899885803e-03    1.0120000000e+05
    7.4999467470e-03    1.0120000000e+05
    7.5099086389e-03    1.0120000000e+05
    7.5198770501e-03    1.0120000000e+05
    7.5298491865e-03    1.0120000000e+05
    7.5398208573e-03    1.0120000000e+05
    7.5497920625e-03    1.0120000000e+05
    7.5597721152e-03    1.0120000000e+05
    7.5697600842e-03    1.0120000000e+05
    7.5797550380e-03    1.0120000000e+05
    7.5897476636e-03    1.0120000000e+05
    7.5999991968e-03    1.0120000000e+05
    7.6097450219e-03    1.0120000000e+05
    7.6197655872e-03    1.0120000000e+05
    7.6297875494e-03    1.0120000000e+05
    7.6398085803e-03    1.0120000000e+05
    7.6498328708e-03    1.0120000000e+05
    7.6598664746e-03    1.0120000000e+05
    7.6699168421e-03    1.0120000000e+05
    7.6799695380e-03    1.0120000000e+05
    7.6897614636e-03    1.0120000000e+05
    7.6998192817e-03    1.0120000000e+05
    7.7098882757e-03    1.0120000000e+05
    7.7199661173e-03    1.0120000000e+05
    7.7297920361e-03    1.0120000000e+05
    7.7398801222e-03    1.0120000000e+05
    7.7499705367e-03    1.0120000000e+05
    7.7598113567e-03    1.0120000000e+05
    7.7699203975e-03    1.0120000000e+05
    7.7797719277e-03    1.0120000000e+05
    7.7898930758e-03    1.0120000000e+05
    7.7997595072e-03    1.0120000000e+05
    7.8098867089e-03    1.0120000000e+05
    7.8197643161e-03    1.0120000000e+05
    7.8299101442e-03    1.0120000000e+05
    7.8397989273e-03    1.0120000000e+05
    7.8499587253e-03    1.0120000000e+05
    7.8598577529e-03    1.0120000000e+05
    7.8697539866e-03    1.0120000000e+05
    7.8799268231e-03    1.0120000000e+05
    7.8898482025e-03    1.0120000000e+05
    7.8997723758e-03    1.0120000000e+05
    7.9099657014e-03    1.0120000000e+05
    7.9198963940e-03    1.0120000000e+05
    7.9298261553e-03    1.0120000000e+05
    7.9397698864e-03    1.0120000000e+05
    7.9499837011e-03    1.0120000000e+05
    7.9599376768e-03    1.0120000000e+05
    7.9698963091e-03    1.0120000000e+05
    7.9798558727e-03    1.0120000000e+05
    7.9898172989e-03    1.0120000000e+05
    7.9997908324e-03    1.0120000000e+05
    8.0097746104e-03    1.0120000000e+05
    8.0197537318e-03    1.0120000000e+05
    8.0297458917e-03    1.0120000000e+05
    8.0397380516e-03    1.0120000000e+05
    8.0499881878e-03    1.0120000000e+05
    8.0599961802e-03    1.0120000000e+05
    8.0697461963e-03    1.0120000000e+05
    8.0797551200e-03    1.0120000000e+05
    8.0897789448e-03    1.0120000000e+05
    8.0998027697e-03    1.0120000000e+05
    8.1098238006e-03    1.0120000000e+05
    8.1198634580e-03    1.0120000000e+05
    8.1299059093e-03    1.0120000000e+05
    8.1399427727e-03    1.0120000000e+05
    8.1499936059e-03    1.0120000000e+05
    8.1597836688e-03    1.0120000000e+05
    8.1698345020e-03    1.0120000000e+05
    8.1799011678e-03    1.0120000000e+05
    8.1899715587e-03    1.0120000000e+05
    8.1997718662e-03    1.0120000000e+05
    8.2098487765e-03    1.0120000000e+05
    8.2199340686e-03    1.0120000000e+05
    8.2297474146e-03    1.0120000000e+05
    8.2398392260e-03    1.0120000000e+05
    8.2499347627e-03    1.0120000000e+05
    8.2597602159e-03    1.0120000000e+05
    8.2698641345e-03    1.0120000000e+05
    8.2799792290e-03    1.0120000000e+05
    8.2898223773e-03    1.0120000000e+05
    8.2999365404e-03    1.0120000000e+05
    8.3097917959e-03    1.0120000000e+05
    8.3199096844e-03    1.0120000000e+05
    8.3297705278e-03    1.0120000000e+05
    8.3399107680e-03    1.0120000000e+05
    8.3497818559e-03    1.0120000000e+05
    8.3599230275e-03    1.0120000000e+05
    8.3698034286e-03    1.0120000000e+05
    8.3799418062e-03    1.0120000000e+05
    8.3898231387e-03    1.0120000000e+05
    8.3999847993e-03    1.0120000000e+05
    8.4098763764e-03    1.0120000000e+05
    8.4197735414e-03    1.0120000000e+05
    8.4299445152e-03    1.0120000000e+05
    8.4398444742e-03    1.0120000000e+05
    8.4497472271e-03    1.0120000000e+05
    8.4599275142e-03    1.0120000000e+05
    8.4698405117e-03    1.0120000000e+05
    8.4797609597e-03    1.0120000000e+05
    8.4899589419e-03    1.0120000000e+05
    8.4998849779e-03    1.0120000000e+05
    8.5098138079e-03    1.0121246094e+05
    8.5197519511e-03    1.6492562500e+05
    8.5299583152e-03    2.0635795312e+05
    8.5398964584e-03    2.0585210938e+05
    8.5498429835e-03    2.0530895312e+05
    8.5597913712e-03    2.0477435938e+05
    8.5697444156e-03    2.0424248438e+05
    8.5799731314e-03    2.0369879688e+05
    8.5899345577e-03    2.0317267188e+05
    8.5998978466e-03    2.0264931250e+05
    8.6098685861e-03    2.0212817188e+05
    8.6198365316e-03    2.0160976562e+05
    8.6298035458e-03    2.0109407812e+05
    8.6397835985e-03    2.0058037500e+05
    8.6497683078e-03    2.0006901562e+05
    8.6597558111e-03    1.9956042188e+05
    8.6697498336e-03    1.9905445312e+05
    8.6797466502e-03    1.9855098438e+05
    8.6897443980e-03    1.9804992188e+05
    8.6997440085e-03    1.9755120312e+05
    8.7097436190e-03    1.9705504688e+05
    8.7197488174e-03    1.9656117188e+05
    8.7297623977e-03    1.9606948438e+05
    8.7397787720e-03    1.9558048438e+05
    8.7497960776e-03    1.9509417188e+05
    8.7598171085e-03    1.9461010938e+05
    8.7698400021e-03    1.9412831250e+05
    8.7798638269e-03    1.9364889062e+05
    8.7898923084e-03    1.9317167188e+05
    8.7999273092e-03    1.9269667188e+05
    8.8099697605e-03    1.9222385938e+05
    8.8197430596e-03    1.9176601562e+05
    8.8297873735e-03    1.9129789062e+05
    8.8398326188e-03    1.9083248438e+05
    8.8498815894e-03    1.9036932812e+05
    8.8599352166e-03    1.8990754688e+05
    8.8699935004e-03    1.8944720312e+05
    8.8797854260e-03    1.8900207812e+05
    8.8898548856e-03    1.8854823438e+05
    8.8999252766e-03    1.8809657812e+05
    8.9099947363e-03    1.8764548438e+05
    8.9197941124e-03    1.8720793750e+05
    8.9298719540e-03    1.8676148438e+05
    8.9399535209e-03    1.8631820312e+05
    8.9497659355e-03    1.8588820312e+05
    8.9598558843e-03    1.8544735938e+05
    8.9699495584e-03    1.8500917188e+05
    8.9797722176e-03    1.8458589062e+05
    8.9898686856e-03    1.8415264062e+05
    8.9999679476e-03    1.8372020312e+05
    9.0097999200e-03    1.8330107812e+05
    9.0199103579e-03    1.8287318750e+05
    9.0297479182e-03    1.8245945312e+05
    9.0398611501e-03    1.8203601562e+05
    9.0499790385e-03    1.8161395312e+05
    9.0598259121e-03    1.8120517188e+05
    9.0699493885e-03    1.8078717188e+05
    9.0798027813e-03    1.8038231250e+05
    9.0899346396e-03    1.7996804688e+05
    9.0997973457e-03    1.7956679688e+05
    9.1099357232e-03    1.7915654688e+05
    9.1198012233e-03    1.7875932812e+05
    9.1299442574e-03    1.7835287500e+05
    9.1398190707e-03    1.7795895312e+05
    9.1499686241e-03    1.7755595312e+05
    9.1598471627e-03    1.7716573438e+05
    9.1697294265e-03    1.7677732812e+05
    9.1798901558e-03    1.7638007812e+05
    9.1897798702e-03    1.7599529688e+05
    9.1999461874e-03    1.7560157812e+05
    9.2098405585e-03    1.7522014062e+05
    9.2197414488e-03    1.7484023438e+05
    9.2299198732e-03    1.7445154688e+05
    9.2398254201e-03    1.7407528125e+05
    9.2497337610e-03    1.7370081250e+05
    9.2599214986e-03    1.7331760938e+05
    9.2698382214e-03    1.7294637500e+05
    9.2797568068e-03    1.7257676562e+05
    9.2899529263e-03    1.7219862500e+05
    9.2998798937e-03    1.7183235938e+05
    9.3098105863e-03    1.7146767188e+05
    9.3197403476e-03    1.7110454688e+05
    9.3299495056e-03    1.7073295312e+05
    9.3398885801e-03    1.7037321875e+05
    9.3498313800e-03    1.7001525000e+05
    9.3597769737e-03    1.6965868750e+05
    9.3697244301e-03    1.6930332812e+05
    9.3799531460e-03    1.6893968750e+05
    9.3899099156e-03    1.6858781250e+05
    9.3998704106e-03    1.6823765625e+05
    9.4098309055e-03    1.6788890625e+05
    9.4197951257e-03    1.6754148438e+05
    9.4297667965e-03    1.6719557812e+05
    9.4397403300e-03    1.6685120312e+05
    9.4499923289e-03    1.6649862500e+05
    9.4599714503e-03    1.6615703125e+05
    9.4699561596e-03    1.6581723438e+05
    9.4799436629e-03    1.6547918750e+05
    9.4899330288e-03    1.6514239062e+05
    9.4999261200e-03    1.6480664062e+05
    9.5099238679e-03    1.6447225000e+05
    9.5199281350e-03    1.6413948438e+05
    9.5299333334e-03    1.6380840625e+05
    9.5399403945e-03    1.6347878125e+05
    9.5499530435e-03    1.6315045312e+05
    9.5599703491e-03    1.6282346875e+05
    9.5699904487e-03    1.6249787500e+05
    9.5797348768e-03    1.6218260938e+05
    9.5897624269e-03    1.6185964062e+05
    9.5997964963e-03    1.6153806250e+05
    9.6098324284e-03    1.6121796875e+05
    9.6198664978e-03    1.6089942188e+05
    9.6299024299e-03    1.6058221875e+05
    9.6399448812e-03    1.6026614062e+05
    9.6499910578e-03    1.5995137500e+05
    9.6597634256e-03    1.5964659375e+05
    9.6698272973e-03    1.5933425000e+05
    9.6798995510e-03    1.5902309375e+05
    9.6899783239e-03    1.5871320312e+05
    9.6997777000e-03    1.5841318750e+05
    9.7098564729e-03    1.5810601562e+05
    9.7199343145e-03    1.5780028125e+05
    9.7297299653e-03    1.5750445312e+05
    9.7398031503e-03    1.5720157812e+05
    9.7498772666e-03    1.5690000000e+05
    9.7599541768e-03    1.5659968750e+05
    9.7697544843e-03    1.5630909375e+05
    9.7798351198e-03    1.5601157812e+05
    9.7899148241e-03    1.5571532812e+05
    9.7999926656e-03    1.5542028125e+05
    9.8097901791e-03    1.5513467188e+05
    9.8198698834e-03    1.5484234375e+05
    9.8299505189e-03    1.5455140625e+05
    9.8397517577e-03    1.5426967188e+05
    9.8498342559e-03    1.5398115625e+05
    9.8599167541e-03    1.5369407812e+05
    9.8699964583e-03    1.5340831250e+05
    9.8797986284e-03    1.5313140625e+05
    9.8898895085e-03    1.5284759375e+05
    9.8999887705e-03    1.5256507812e+05
    9.9098104984e-03    1.5229170312e+05
    9.9199125543e-03    1.5201154688e+05
    9.9297324196e-03    1.5174014062e+05
    9.9398316815e-03    1.5146225000e+05
    9.9499281496e-03    1.5118585938e+05
    9.9597433582e-03    1.5091843750e+05
    9.9698398262e-03    1.5064448438e+05
    9.9799390882e-03    1.5037167188e+05
    9.9897589535e-03    1.5010753125e+05
    9.9998619407e-03    1.4983696875e+05
    1.0009963997e-02    1.4956754688e+05
    1.0019784793e-02    1.4930676562e+05
    1.0029884055e-02    1.4903982812e+05
    1.0039982386e-02    1.4877414062e+05
    1.0049800389e-02    1.4851700000e+05
    1.0059898719e-02    1.4825362500e+05
    1.0069996119e-02    1.4799135938e+05
    1.0079814121e-02    1.4773740625e+05
    1.0089912452e-02    1.4747732812e+05
    1.0099729523e-02    1.4722560938e+05
    1.0109825060e-02    1.4696790625e+05
    1.0119920596e-02    1.4671139062e+05
    1.0129734874e-02    1.4646314062e+05
    1.0139829479e-02    1.4620885938e+05
    1.0149924085e-02    1.4595556250e+05
    1.0159737431e-02    1.4571021875e+05
    1.0169832036e-02    1.4545896875e+05
    1.0179924779e-02    1.4520900000e+05
    1.0189736262e-02    1.4496717188e+05
    1.0199827142e-02    1.4471951562e+05
    1.0209919885e-02    1.4447273438e+05
    1.0219732299e-02    1.4423371875e+05
    1.0229824111e-02    1.4398896875e+05
    1.0239916854e-02    1.4374529688e+05
    1.0249729268e-02    1.4350932812e+05
    1.0259823874e-02    1.4326764062e+05
    1.0269919410e-02    1.4302714062e+05
    1.0279736482e-02    1.4279429688e+05
    1.0289838538e-02    1.4255554688e+05
    1.0299943388e-02    1.4231757812e+05
    1.0309772566e-02    1.4208714062e+05
    1.0319883004e-02    1.4185128125e+05
    1.0329991579e-02    1.4161646875e+05
    1.0339817964e-02    1.4138906250e+05
    1.0349927470e-02    1.4115610938e+05
    1.0359754786e-02    1.4093062500e+05
    1.0369864292e-02    1.4069960938e+05
    1.0379977524e-02    1.4046937500e+05
    1.0389814153e-02    1.4024642188e+05
    1.0399934836e-02    1.4001809375e+05
    1.0409775190e-02    1.3979709375e+05
    1.0419894010e-02    1.3957068750e+05
    1.0429730639e-02    1.3935146875e+05
    1.0439847596e-02    1.3912690625e+05
    1.0449962690e-02    1.3890331250e+05
    1.0459795594e-02    1.3868685938e+05
    1.0469909757e-02    1.3846523438e+05
    1.0479742661e-02    1.3825070312e+05
    1.0489855893e-02    1.3803093750e+05
    1.0499969125e-02    1.3781203125e+05
    1.0509801097e-02    1.3760001562e+05
    1.0519914329e-02    1.3738282812e+05
    1.0529747233e-02    1.3717256250e+05
    1.0539861396e-02    1.3695725000e+05
    1.0549975559e-02    1.3674289062e+05
    1.0559807532e-02    1.3653531250e+05
    1.0569920763e-02    1.3632262500e+05
    1.0579751804e-02    1.3611665625e+05
    1.0589862242e-02    1.3590568750e+05
    1.0599972680e-02    1.3569565625e+05
    1.0609802790e-02    1.3549229688e+05
    1.0619917884e-02    1.3528393750e+05
    1.0629753582e-02    1.3508215625e+05
    1.0639871471e-02    1.3487534375e+05
    1.0649991222e-02    1.3466929688e+05
    1.0659829713e-02    1.3446979688e+05
    1.0669951327e-02    1.3426550000e+05
    1.0679795407e-02    1.3406760938e+05
    1.0689932853e-02    1.3386460938e+05
    1.0699797422e-02    1.3366787500e+05
    1.0709943250e-02    1.3346643750e+05
    1.0719809681e-02    1.3327134375e+05
    1.0729963891e-02    1.3307120312e+05
    1.0739841498e-02    1.3287725000e+05
    1.0749732144e-02    1.3268389062e+05
    1.0759919882e-02    1.3248560938e+05
    1.0769838467e-02    1.3229335938e+05
    1.0779764503e-02    1.3210167188e+05
    1.0789974593e-02    1.3190532812e+05
    1.0799909942e-02    1.3171504688e+05
    1.0809862055e-02    1.3152514062e+05
    1.0819822550e-02    1.3133575000e+05
    1.0829792358e-02    1.3114698438e+05
    1.0839774273e-02    1.3095882031e+05
    1.0849763639e-02    1.3077128125e+05
    1.0859755799e-02    1.3058446094e+05
    1.0869755410e-02    1.3039821094e+05
    1.0879766196e-02    1.3021246875e+05
    1.0889787227e-02    1.3002721094e+05
    1.0899816640e-02    1.2984250000e+05
    1.0909855366e-02    1.2965839844e+05
    1.0919910856e-02    1.2947478906e+05
    1.0929975659e-02    1.2929181250e+05
    1.0939757340e-02    1.2911467969e+05
    1.0949854739e-02    1.2893249219e+05
    1.0959981941e-02    1.2875039844e+05
    1.0969846509e-02    1.2857371094e+05
    1.0979736224e-02    1.2839728906e+05
    1.0989939794e-02    1.2821607031e+05
    1.0999871418e-02    1.2804039844e+05
    1.1009820737e-02    1.2786508594e+05
    1.1019786820e-02    1.2769013281e+05
    1.1029770598e-02    1.2751550000e+05
    1.1039772071e-02    1.2734121094e+05
    1.1049795896e-02    1.2716727344e+05
    1.1059846729e-02    1.2699359375e+05
    1.1069928296e-02    1.2682003906e+05
    1.1079741642e-02    1.2665172656e+05
    1.1089877225e-02    1.2647859375e+05
    1.1099732481e-02    1.2631097656e+05
    1.1109896004e-02    1.2613877344e+05
    1.1119768023e-02    1.2597202344e+05
    1.1129940860e-02    1.2580084375e+05
    1.1139816605e-02    1.2563538281e+05
    1.1149995960e-02    1.2546550781e+05
    1.1159900576e-02    1.2530085156e+05
    1.1169835925e-02    1.2513634375e+05
    1.1179804802e-02    1.2497197656e+05
    1.1189809069e-02    1.2480764844e+05
    1.1199859902e-02    1.2464311719e+05
    1.1209983379e-02    1.2447803125e+05
    1.1219911277e-02    1.2431678125e+05
    1.1229995638e-02    1.2415366406e+05
    1.1239944957e-02    1.2399336719e+05
    1.1249762028e-02    1.2383583594e+05
    1.1259772815e-02    1.2367583594e+05
    1.1269980110e-02    1.2351328906e+05
    1.1279680766e-02    1.2335935156e+05
    1.1289904825e-02    1.2319771875e+05
    1.1299942620e-02    1.2303964844e+05
    1.1309774593e-02    1.2288541406e+05
    1.1319754645e-02    1.2272947656e+05
    1.1329879984e-02    1.2257187500e+05
    1.1339765973e-02    1.2241858594e+05
    1.1349784210e-02    1.2226383594e+05
    1.1359933764e-02    1.2210764844e+05
    1.1369816028e-02    1.2195610156e+05
    1.1379817501e-02    1.2180328906e+05
    1.1389939114e-02    1.2164925000e+05
    1.1399766430e-02    1.2150025781e+05
    1.1409703642e-02    1.2135014844e+05
    1.1419748887e-02    1.2119900000e+05
    1.1429902166e-02    1.2104687500e+05
    1.1439736933e-02    1.2090014844e+05
    1.1449673213e-02    1.2075234375e+05
    1.1459698901e-02    1.2060364844e+05
    1.1469800025e-02    1.2045442969e+05
    1.1479983106e-02    1.2030466406e+05
    1.1489806697e-02    1.2016075000e+05
    1.1499705724e-02    1.2001613281e+05
    1.1509671807e-02    1.1987107031e+05
    1.1519690976e-02    1.1972590625e+05
    1.1529758573e-02    1.1958069531e+05
    1.1539856903e-02    1.1943546094e+05
    1.1549998075e-02    1.1929003906e+05
    1.1559712701e-02    1.1915127344e+05
    1.1569936760e-02    1.1900591406e+05
    1.1579730548e-02    1.1886707031e+05
    1.1589566246e-02    1.1872811719e+05
    1.1599926278e-02    1.1858242969e+05
    1.1609860696e-02    1.1844340625e+05
    1.1619815603e-02    1.1830439844e+05
    1.1629818007e-02    1.1816506250e+05
    1.1639881879e-02    1.1802575000e+05
    1.1649971828e-02    1.1788633594e+05
    1.1659621261e-02    1.1775380469e+05
    1.1669776402e-02    1.1761435156e+05
    1.1679995805e-02    1.1747446094e+05
    1.1689740233e-02    1.1734222656e+05
    1.1699581519e-02    1.1720890625e+05
    1.1709861457e-02    1.1707018750e+05
    1.1719785631e-02    1.1693696094e+05
    1.1729634367e-02    1.1680493750e+05
    1.1739588343e-02    1.1667208594e+05
    1.1749570258e-02    1.1653886719e+05
    1.1759563349e-02    1.1640675000e+05
    1.1769620702e-02    1.1627409375e+05
    1.1779714376e-02    1.1614088281e+05
    1.1789833196e-02    1.1600808594e+05
    1.1799983680e-02    1.1587502344e+05
    1.1809591204e-02    1.1574896094e+05
    1.1819775216e-02    1.1561727344e+05
    1.1829519644e-02    1.1549205469e+05
    1.1839817278e-02    1.1535997656e+05
    1.1849557981e-02    1.1523472656e+05
    1.1859885417e-02    1.1510377344e+05
    1.1869786307e-02    1.1497883594e+05
    1.1879677884e-02    1.1485344531e+05
    1.1889653280e-02    1.1472803906e+05
    1.1899570003e-02    1.1460207031e+05
    1.1909500696e-02    1.1447646875e+05
    1.1919999495e-02    1.1434434375e+05
    1.1929444969e-02    1.1422518750e+05
    1.1939506046e-02    1.1409939844e+05
    1.1949578300e-02    1.1397347656e+05
    1.1959681287e-02    1.1384853125e+05
    1.1969798245e-02    1.1372492969e+05
    1.1979932897e-02    1.1360143750e+05
    1.1989592575e-02    1.1348587500e+05
    1.1999717914e-02    1.1336438281e+05
    1.2009902857e-02    1.1324302344e+05
    1.2019610032e-02    1.1312847656e+05
    1.2029847130e-02    1.1300643750e+05
    1.2039601803e-02    1.1289069531e+05
    1.2049854733e-02    1.1276700000e+05
    1.2059681118e-02    1.1264943750e+05
    1.2069945224e-02    1.1252447656e+05
    1.2079696171e-02    1.1240680469e+05
    1.2089965865e-02    1.1228250781e+05
    1.2099561282e-02    1.1216700000e+05
    1.2109566480e-02    1.1204762500e+05
    1.2119816616e-02    1.1192685156e+05
    1.2129757553e-02    1.1181153906e+05
    1.2139841914e-02    1.1169642969e+05
    1.2149574235e-02    1.1158702344e+05
    1.2159845792e-02    1.1147303906e+05
    1.2169724330e-02    1.1136453906e+05
    1.2179627083e-02    1.1125638281e+05
    1.2189903297e-02    1.1114397656e+05
    1.2199721299e-02    1.1103571094e+05
    1.2209795415e-02    1.1092325000e+05
    1.2219695374e-02    1.1081128125e+05
    1.2229689397e-02    1.1069697656e+05
    1.2239960954e-02    1.1057863281e+05
    1.2249789201e-02    1.1046517969e+05
    1.2259851210e-02    1.1034922656e+05
    1.2269853614e-02    1.1023446875e+05
    1.2279820628e-02    1.1012096094e+05
    1.2289901264e-02    1.1000722656e+05
    1.2299956754e-02    1.0989478125e+05
    1.2309900485e-02    1.0978568750e+05
    1.2319944799e-02    1.0967631250e+05
    1.2329855002e-02    1.0956971094e+05
    1.2339996174e-02    1.0946178906e+05
    1.2349903584e-02    1.0935746094e+05
    1.2359933928e-02    1.0925278906e+05
    1.2369961478e-02    1.0914909375e+05
    1.2379911728e-02    1.0904688281e+05
    1.2389972806e-02    1.0894414844e+05
    1.2399894185e-02    1.0884310156e+05
    1.2409852818e-02    1.0874163281e+05
    1.2419852428e-02    1.0863957031e+05
    1.2429825962e-02    1.0853731250e+05
    1.2439970858e-02    1.0843285156e+05
    1.2449806556e-02    1.0833137500e+05
    1.2459964491e-02    1.0822636719e+05
    1.2469777837e-02    1.0812493750e+05
    1.2479877099e-02    1.0802062500e+05
    1.2489821762e-02    1.0791809375e+05
    1.2499812059e-02    1.0781535156e+05
    1.2509863824e-02    1.0771212500e+05
    1.2519954704e-02    1.0760868750e+05
    1.2529861182e-02    1.0750731250e+05
    1.2539802119e-02    1.0740606250e+05
    1.2549781241e-02    1.0730471094e+05
    1.2559788302e-02    1.0720341406e+05
    1.2569828890e-02    1.0710199219e+05
    1.2579895556e-02    1.0700074219e+05
    1.2589990161e-02    1.0689971094e+05
    1.2599878944e-02    1.0680137500e+05
    1.2609782629e-02    1.0670359375e+05
    1.2619957328e-02    1.0660393750e+05
    1.2629901990e-02    1.0650727344e+05
    1.2639882974e-02    1.0641096094e+05
    1.2649866752e-02    1.0631533594e+05
    1.2659882195e-02    1.0622005469e+05
    1.2669908814e-02    1.0612522656e+05
    1.2679951265e-02    1.0603077344e+05
    1.2689788826e-02    1.0593861719e+05
    1.2699845247e-02    1.0584464844e+05
    1.2709949166e-02    1.0575025000e+05
    1.2719819322e-02    1.0565805469e+05
    1.2729953974e-02    1.0556341406e+05
    1.2739850208e-02    1.0547110156e+05
    1.2749785557e-02    1.0537864844e+05
    1.2759977020e-02    1.0528390625e+05
    1.2769921683e-02    1.0519166406e+05
    1.2779904529e-02    1.0509932031e+05
    1.2789903209e-02    1.0500714844e+05
    1.2799903750e-02    1.0491546875e+05
    1.2809921987e-02    1.0482412500e+05
    1.2819975615e-02    1.0473283594e+05
    1.2829780579e-02    1.0464402344e+05
    1.2839835137e-02    1.0455321094e+05
    1.2849931605e-02    1.0446236719e+05
    1.2859783135e-02    1.0437409375e+05
    1.2869878672e-02    1.0428390625e+05
    1.2879759073e-02    1.0419589844e+05
    1.2889906764e-02    1.0410572656e+05
    1.2899799272e-02    1.0401819531e+05
    1.2909952551e-02    1.0392866406e+05
    1.2919894420e-02    1.0384128125e+05
    1.2929822318e-02    1.0375434375e+05
    1.2939753942e-02    1.0366771094e+05
    1.2949976139e-02    1.0357890625e+05
    1.2959949672e-02    1.0349258594e+05
    1.2969916686e-02    1.0340671094e+05
    1.2979908846e-02    1.0332093750e+05
    1.2989925221e-02    1.0323511719e+05
    1.2999936007e-02    1.0314964844e+05
    1.3009949587e-02    1.0306453906e+05
    1.3019991107e-02    1.0297950781e+05
    1.3029776514e-02    1.0289681250e+05
    1.3039818965e-02    1.0281221094e+05
    1.3049883768e-02    1.0272778125e+05
    1.3059963472e-02    1.0264353906e+05
    1.3069785200e-02    1.0256174219e+05
    1.3079875149e-02    1.0247792969e+05
    1.3089985587e-02    1.0239425781e+05
    1.3099838980e-02    1.0231303906e+05
    1.3109949417e-02    1.0223003125e+05
    1.3119824231e-02    1.0214916406e+05
    1.3129968196e-02    1.0206627344e+05
    1.3139855117e-02    1.0198562500e+05
    1.3149753213e-02    1.0190508594e+05
    1.3159918599e-02    1.0182264844e+05
    1.3169833459e-02    1.0174246094e+05
    1.3179756701e-02    1.0166242969e+05
    1.3189945370e-02    1.0158032031e+05
    1.3199886307e-02    1.0150027344e+05
    1.3209829107e-02    1.0142034375e+05
    1.3219785877e-02    1.0134058594e+05
    1.3229752891e-02    1.0126099219e+05
    1.3239978813e-02    1.0117952344e+05
    1.3249950483e-02    1.0110021875e+05
    1.3259937055e-02    1.0102097656e+05
    1.3269930147e-02    1.0094196875e+05
    1.3279926032e-02    1.0086327344e+05
    1.3289927505e-02    1.0078491406e+05
    1.3299938291e-02    1.0070691406e+05
    1.3309956528e-02    1.0062928906e+05
    1.3319981284e-02    1.0055214844e+05
    1.3329753652e-02    1.0047746094e+05
    1.3339789584e-02    1.0040125781e+05
    1.3349828310e-02    1.0032563281e+05
    1.3359877281e-02    1.0025056250e+05
    1.3369932771e-02    1.0017607031e+05
    1.3379988261e-02    1.0010208594e+05
    1.3389792293e-02    1.0003041406e+05
    1.3399862684e-02    9.9957164062e+04
    1.3409940526e-02    9.9884070312e+04
    1.3419763185e-02    9.9812843750e+04
    1.3429845683e-02    9.9739664062e+04
    1.3439937495e-02    9.9666257812e+04
    1.3449775986e-02    9.9594468750e+04
    1.3459876180e-02    9.9520562500e+04
    1.3469980098e-02    9.9446523438e+04
    1.3479826972e-02    9.9374250000e+04
    1.3489939272e-02    9.9299976562e+04
    1.3499800116e-02    9.9227664062e+04
    1.3509920798e-02    9.9153843750e+04
    1.3519787230e-02    9.9082320312e+04
    1.3529913500e-02    9.9009312500e+04
    1.3539788313e-02    9.8938414062e+04
    1.3549930416e-02    9.8865898438e+04
    1.3559812680e-02    9.8795585938e+04
    1.3569956645e-02    9.8723781250e+04
    1.3579842634e-02    9.8654101562e+04
    1.3589986600e-02    9.8582757812e+04
    1.3599880040e-02    9.8513250000e+04
    1.3609771617e-02    9.8443906250e+04
    1.3619930483e-02    9.8372976562e+04
    1.3629835099e-02    9.8304210938e+04
    1.3639742509e-02    9.8235867188e+04
    1.3649911620e-02    9.8166164062e+04
    1.3659819961e-02    9.8098710938e+04
    1.3669988140e-02    9.8030093750e+04
    1.3679895550e-02    9.7963937500e+04
    1.3689802960e-02    9.7898335938e+04
    1.3699970208e-02    9.7831398438e+04
    1.3709877618e-02    9.7766460938e+04
    1.3719784096e-02    9.7701679688e+04
    1.3729952276e-02    9.7635093750e+04
    1.3739860617e-02    9.7569898438e+04
    1.3749768957e-02    9.7504281250e+04
    1.3759939931e-02    9.7436476562e+04
    1.3769851066e-02    9.7369992188e+04
    1.3779762201e-02    9.7303210938e+04
    1.3789935969e-02    9.7234562500e+04
    1.3799848035e-02    9.7167835938e+04
    1.3809761032e-02    9.7101476562e+04
    1.3819934800e-02    9.7033960938e+04
    1.3829847798e-02    9.6968906250e+04
    1.3839761727e-02    9.6904656250e+04
    1.3849935494e-02    9.6839617188e+04
    1.3859849423e-02    9.6777101562e+04
    1.3869763352e-02    9.6715343750e+04
    1.3879938982e-02    9.6652539062e+04
    1.3889854774e-02    9.6591742188e+04
    1.3899770565e-02    9.6531156250e+04
    1.3909948990e-02    9.6469039062e+04
    1.3919865713e-02    9.6408367188e+04
    1.3929783367e-02    9.6347273438e+04
    1.3939961791e-02    9.6283976562e+04
    1.3949880376e-02    9.6221835938e+04
    1.3959799893e-02    9.6159312500e+04
    1.3969980180e-02    9.6094992188e+04
    1.3979900628e-02    9.6032382812e+04
    1.3989820145e-02    9.5970023438e+04
    1.3999740593e-02    9.5907992188e+04
    1.4009922743e-02    9.5844851562e+04
    1.4019843191e-02    9.5784023438e+04
    1.4029763639e-02    9.5723960938e+04
    1.4039944857e-02    9.5663000000e+04
    1.4049866237e-02    9.5604195312e+04
    1.4059786685e-02    9.5546000000e+04
    1.4069970697e-02    9.5486835938e+04
    1.4079893939e-02    9.5429507812e+04
    1.4089820907e-02    9.5372343750e+04
    1.4099751599e-02    9.5315210938e+04
    1.4109948650e-02    9.5256406250e+04
    1.4119885862e-02    9.5198773438e+04
    1.4129822142e-02    9.5140718750e+04
    1.4139756560e-02    9.5082210938e+04
    1.4149951749e-02    9.5021710938e+04
    1.4159884304e-02    9.4962492188e+04
    1.4169816859e-02    9.4903320312e+04
    1.4179749414e-02    9.4844492188e+04
    1.4189945534e-02    9.4784726562e+04
    1.4199884608e-02    9.4727250000e+04
    1.4209824614e-02    9.4670601562e+04
    1.4219764620e-02    9.4614875000e+04
    1.4229965396e-02    9.4558664062e+04
    1.4239905402e-02    9.4504726562e+04
    1.4249844477e-02    9.4451289062e+04
    1.4259784482e-02    9.4397968750e+04
    1.4269986190e-02    9.4342929688e+04
    1.4279926196e-02    9.4288687500e+04
    1.4289865270e-02    9.4233695312e+04
    1.4299805276e-02    9.4177960938e+04
    1.4309745282e-02    9.4121632812e+04
    1.4319947921e-02    9.4063492188e+04
    1.4329888858e-02    9.4006960938e+04
    1.4339829795e-02    9.3950906250e+04
    1.4349769801e-02    9.3895617188e+04
    1.4359972440e-02    9.3839898438e+04
    1.4369912446e-02    9.3786773438e+04
    1.4379853383e-02    9.3734726562e+04
    1.4389795251e-02    9.3683468750e+04
    1.4399997890e-02    9.3631335938e+04
    1.4409939758e-02    9.3580710938e+04
    1.4419880696e-02    9.3529851562e+04
    1.4429821633e-02    9.3478414062e+04
    1.4439763501e-02    9.3426257812e+04
    1.4449966140e-02    9.3371976562e+04
    1.4459908009e-02    9.3318476562e+04
    1.4469849877e-02    9.3264656250e+04
    1.4479791746e-02    9.3210929688e+04
    1.4489994384e-02    9.3156289062e+04
    1.4499936253e-02    9.3103789062e+04
    1.4509878121e-02    9.3052273438e+04
    1.4519819990e-02    9.3001835938e+04
    1.4529761858e-02    9.2952476562e+04
    1.4539965428e-02    9.2902750000e+04
    1.4549908228e-02    9.2854726562e+04
    1.4559850097e-02    9.2806593750e+04
    1.4569791965e-02    9.2757960938e+04
    1.4579995535e-02    9.2707335938e+04
    1.4589938335e-02    9.2657187500e+04
    1.4599880204e-02    9.2606250000e+04
    1.4609823003e-02    9.2554750000e+04
    1.4619765803e-02    9.2503210938e+04
    1.4629969373e-02    9.2450851562e+04
    1.4639912173e-02    9.2400757812e+04
    1.4649854042e-02    9.2351664062e+04
    1.4659796841e-02    9.2303695312e+04
    1.4669739641e-02    9.2256851562e+04
    1.4679943211e-02    9.2209726562e+04
    1.4689886011e-02    9.2164132812e+04
    1.4699828811e-02    9.2118226562e+04
    1.4709771611e-02    9.2071601562e+04
    1.4719976112e-02    9.2022812500e+04
    1.4729918912e-02    9.1974335938e+04
    1.4739861712e-02    9.1925210938e+04
    1.4749804512e-02    9.1875914062e+04
    1.4759747311e-02    9.1826914062e+04
    1.4769952744e-02    9.1777382812e+04
    1.4779895544e-02    9.1730179688e+04
    1.4789838344e-02    9.1684210938e+04
    1.4799781144e-02    9.1639375000e+04
    1.4809986576e-02    9.1594210938e+04
    1.4819929376e-02    9.1550531250e+04
    1.4829873107e-02    9.1506648438e+04
    1.4839815907e-02    9.1462062500e+04
    1.4849759638e-02    9.1416554688e+04
    1.4859965071e-02    9.1368898438e+04
    1.4869907871e-02    9.1321804688e+04
    1.4879851602e-02    9.1274562500e+04
    1.4889795333e-02    9.1227750000e+04
    1.4899739064e-02    9.1181789062e+04
    1.4909944497e-02    9.1135789062e+04
    1.4919888228e-02    9.1092179688e+04
    1.4929832891e-02    9.1049562500e+04
    1.4939776622e-02    9.1007531250e+04
    1.4949982055e-02    9.0964468750e+04
    1.4959926717e-02    9.0922085938e+04
    1.4969870448e-02    9.0878898438e+04
    1.4979815111e-02    9.0834812500e+04
    1.4989759773e-02    9.0790085938e+04
    1.4999966137e-02    9.0743781250e+04
    1.5009910800e-02    9.0698726562e+04
    1.5019855462e-02    9.0654281250e+04
    1.5029801056e-02    9.0610968750e+04
    1.5039745718e-02    9.0568906250e+04
    1.5049952082e-02    9.0526781250e+04
    1.5059896745e-02    9.0486367188e+04
    1.5069841407e-02    9.0446085938e+04
    1.5079787001e-02    9.0405460938e+04
    1.5089995228e-02    9.0363000000e+04
    1.5099940822e-02    9.0320742188e+04
    1.5109887347e-02    9.0277742188e+04
    1.5119833872e-02    9.0234445312e+04
    1.5129780397e-02    9.0191398438e+04
    1.5139988624e-02    9.0147906250e+04
    1.5149935149e-02    9.0106507812e+04
    1.5159881674e-02    9.0066210938e+04
    1.5169829130e-02    9.0026875000e+04
    1.5179775655e-02    8.9988085938e+04
    1.5189985745e-02    8.9948226562e+04
    1.5199933201e-02    8.9908906250e+04
    1.5209880657e-02    8.9868835938e+04
    1.5219829045e-02    8.9828023438e+04
    1.5229776502e-02    8.9786710938e+04
    1.5239985660e-02    8.9744210938e+04
    1.5249934047e-02    8.9703218750e+04
    1.5259881504e-02    8.9663085938e+04
    1.5269829892e-02    8.9623929688e+04
    1.5279778279e-02    8.9585664062e+04
    1.5289988369e-02    8.9547039062e+04
    1.5299937688e-02    8.9509648438e+04
    1.5309886076e-02    8.9471968750e+04
    1.5319835395e-02    8.9433656250e+04
    1.5329784714e-02    8.9394664062e+04
    1.5339996666e-02    8.9354156250e+04
    1.5349946916e-02    8.9314554688e+04
    1.5359896235e-02    8.9275210938e+04
    1.5369846486e-02    8.9236500000e+04
    1.5379796736e-02    8.9198664062e+04
    1.5389746986e-02    8.9161773438e+04
    1.5399958938e-02    8.9124601562e+04
    1.5409909189e-02    8.9088523438e+04
    1.5419859439e-02    8.9052093750e+04
    1.5429809690e-02    8.9015210938e+04
    1.5439760871e-02    8.8977835938e+04
    1.5449973755e-02    8.8939023438e+04
    1.5459924936e-02    8.8901023438e+04
    1.5469877049e-02    8.8863351562e+04
    1.5479828231e-02    8.8826414062e+04
    1.5489779413e-02    8.8790242188e+04
    1.5499993227e-02    8.8753773438e+04
    1.5509945340e-02    8.8718601562e+04
    1.5519897453e-02    8.8683531250e+04
    1.5529849567e-02    8.8648281250e+04
    1.5539801680e-02    8.8612664062e+04
    1.5549754724e-02    8.8576601562e+04
    1.5559968539e-02    8.8539351562e+04
    1.5569921583e-02    8.8503148438e+04
    1.5579875559e-02    8.8467281250e+04
    1.5589828603e-02    8.8431875000e+04
    1.5599781647e-02    8.8397062500e+04
    1.5609996393e-02    8.8361976562e+04
    1.5619950369e-02    8.8328085938e+04
    1.5629904345e-02    8.8294101562e+04
    1.5639858320e-02    8.8259843750e+04
    1.5649812296e-02    8.8225281250e+04
    1.5659766272e-02    8.8190476562e+04
    1.5669982880e-02    8.8154695312e+04
    1.5679936856e-02    8.8120023438e+04
    1.5689892694e-02    8.8085726562e+04
    1.5699846670e-02    8.8051976562e+04
    1.5709802508e-02    8.8018812500e+04
    1.5719756484e-02    8.7986023438e+04
    1.5729974955e-02    8.7952414062e+04
    1.5739928931e-02    8.7919523438e+04
    1.5749884769e-02    8.7886343750e+04
    1.5759840608e-02    8.7852914062e+04
    1.5769796446e-02    8.7819437500e+04
    1.5779754147e-02    8.7786179688e+04
    1.5789970756e-02    8.7752476562e+04
    1.5799928457e-02    8.7720054688e+04
    1.5809884295e-02    8.7687929688e+04
    1.5819840133e-02    8.7656007812e+04
    1.5829797834e-02    8.7624210938e+04
    1.5839755535e-02    8.7592335938e+04
    1.5849974006e-02    8.7559406250e+04
    1.5859931707e-02    8.7527195312e+04
    1.5869889408e-02    8.7495101562e+04
    1.5879845247e-02    8.7463273438e+04
    1.5889802948e-02    8.7431625000e+04
    1.5899762511e-02    8.7400187500e+04
    1.5909980983e-02    8.7368257812e+04
    1.5919940546e-02    8.7337437500e+04
    1.5929898247e-02    8.7306734375e+04
    1.5939855948e-02    8.7276046875e+04
    1.5949813649e-02    8.7245289062e+04
    1.5959773213e-02    8.7214398438e+04
    1.5969993547e-02    8.7182703125e+04
    1.5979953110e-02    8.7152046875e+04
    1.5989910811e-02    8.7121664062e+04
    1.5999870375e-02    8.7091523438e+04
    1.6009829938e-02    8.7061640625e+04
    1.6019789502e-02    8.7031953125e+04
    1.6029749066e-02    8.7002257812e+04
    1.6039971262e-02    8.6971679688e+04
    1.6049930826e-02    8.6941875000e+04
    1.6059890389e-02    8.6912164062e+04
    1.6069849953e-02    8.6882617188e+04
    1.6079809517e-02    8.6853242188e+04
    1.6089770943e-02    8.6824015625e+04
    1.6099993140e-02    8.6794203125e+04
    1.6109952703e-02    8.6765382812e+04
    1.6119914129e-02    8.6736695312e+04
    1.6129873693e-02    8.6707984375e+04
    1.6139835119e-02    8.6679296875e+04
    1.6149796546e-02    8.6650773438e+04
    1.6159757972e-02    8.6622359375e+04
    1.6169980168e-02    8.6593148438e+04
    1.6179941595e-02    8.6564726562e+04
    1.6189903021e-02    8.6536554688e+04
    1.6199864447e-02    8.6508742188e+04
    1.6209825873e-02    8.6481156250e+04
    1.6219787300e-02    8.6453531250e+04
    1.6229750589e-02    8.6425750000e+04
    1.6239974648e-02    8.6397273438e+04
    1.6249936074e-02    8.6369820312e+04
    1.6259897500e-02    8.6342562500e+04
    1.6269860789e-02    8.6315312500e+04
    1.6279822215e-02    8.6288109375e+04
    1.6289785504e-02    8.6261117188e+04
    1.6299746931e-02    8.6234304688e+04
    1.6309972852e-02    8.6206898438e+04
    1.6319936141e-02    8.6180312500e+04
    1.6329897568e-02    8.6153828125e+04
    1.6339860857e-02    8.6127335938e+04
    1.6349824145e-02    8.6100828125e+04
    1.6359787434e-02    8.6074437500e+04
    1.6369750723e-02    8.6048304688e+04
    1.6379976645e-02    8.6021757812e+04
    1.6389939934e-02    8.5995945312e+04
    1.6399903223e-02    8.5970031250e+04
    1.6409866512e-02    8.5944156250e+04
    1.6419831663e-02    8.5918546875e+04
    1.6429794952e-02    8.5893140625e+04
    1.6439758241e-02    8.5867710938e+04
    1.6449984163e-02    8.5841562500e+04
    1.6459949315e-02    8.5816210938e+04
    1.6469912603e-02    8.5791101562e+04
    1.6479877755e-02    8.5766156250e+04
    1.6489842907e-02    8.5741218750e+04
    1.6499806195e-02    8.5716273438e+04
    1.6509771347e-02    8.5691445312e+04
    1.6519997269e-02    8.5666164062e+04
    1.6529962420e-02    8.5641625000e+04
    1.6539927572e-02    8.5617132812e+04
    1.6549892724e-02    8.5592804688e+04
    1.6559857875e-02    8.5568671875e+04
    1.6569823027e-02    8.5544617188e+04
    1.6579788178e-02    8.5520546875e+04
    1.6589753330e-02    8.5496539062e+04
    1.6599981114e-02    8.5472101562e+04
    1.6609946266e-02    8.5448539062e+04
    1.6619911417e-02    8.5425109375e+04
    1.6629878432e-02    8.5401625000e+04
    1.6639843583e-02    8.5378125000e+04
    1.6649808735e-02    8.5354765625e+04
    1.6659775749e-02    8.5331578125e+04
    1.6669740900e-02    8.5308460938e+04
    1.6679968685e-02    8.5284843750e+04
    1.6689935699e-02    8.5262007812e+04
    1.6699900851e-02    8.5239226562e+04
    1.6709867865e-02    8.5216421875e+04
    1.6719834879e-02    8.5193742188e+04
    1.6729800031e-02    8.5171242188e+04
    1.6739767045e-02    8.5148765625e+04
    1.6749996692e-02    8.5125703125e+04
    1.6759961843e-02    8.5103406250e+04
    1.6769928858e-02    8.5081312500e+04
    1.6779895872e-02    8.5059304688e+04
    1.6789862886e-02    8.5037335938e+04
    1.6799829900e-02    8.5015429688e+04
    1.6809796914e-02    8.4993656250e+04
    1.6819763929e-02    8.4972046875e+04
    1.6829993576e-02    8.4949984375e+04
    1.6839960590e-02    8.4928484375e+04
    1.6849927604e-02    8.4907054688e+04
    1.6859894618e-02    8.4885812500e+04
    1.6869861633e-02    8.4864750000e+04
    1.6879828647e-02    8.4843718750e+04
    1.6889795661e-02    8.4822687500e+04
    1.6899764538e-02    8.4801718750e+04
    1.6909994185e-02    8.4780289062e+04
    1.6919961199e-02    8.4759515625e+04
    1.6929928213e-02    8.4738875000e+04
    1.6939897090e-02    8.4718343750e+04
    1.6949864104e-02    8.4697906250e+04
    1.6959831119e-02    8.4677578125e+04
    1.6969799995e-02    8.4657359375e+04
    1.6979767010e-02    8.4637203125e+04
    1.6989996657e-02    8.4616617188e+04
    1.6999965534e-02    8.4596679688e+04
    1.7009932548e-02    8.4576812500e+04
    1.7019901425e-02    8.4556968750e+04
    1.7029868439e-02    8.4537195312e+04
    1.7039837316e-02    8.4517609375e+04
    1.7049806193e-02    8.4498226562e+04
    1.7059773207e-02    8.4478945312e+04
    1.7069742084e-02    8.4459656250e+04
    1.7079971731e-02    8.4439812500e+04
    1.7089940608e-02    8.4420554688e+04
    1.7099909484e-02    8.4401445312e+04
    1.7109876499e-02    8.4382515625e+04
    1.7119845375e-02    8.4363742188e+04
    1.7129814252e-02    8.4345039062e+04
    1.7139781266e-02    8.4326296875e+04
    1.7149750143e-02    8.4307554688e+04
    1.7159981653e-02    8.4288523438e+04
    1.7169948667e-02    8.4270195312e+04
    1.7179917544e-02    8.4251929688e+04
    1.7189886421e-02    8.4233671875e+04
    1.7199855298e-02    8.4215484375e+04
    1.7209822312e-02    8.4197421875e+04
    1.7219791189e-02    8.4179492188e+04
    1.7229760066e-02    8.4161687500e+04
    1.7239989713e-02    8.4143453125e+04
    1.7249958590e-02    8.4125687500e+04
    1.7259927467e-02    8.4107992188e+04
    1.7269896343e-02    8.4090437500e+04
    1.7279865220e-02    8.4073000000e+04
    1.7289832234e-02    8.4055609375e+04
    1.7299801111e-02    8.4038250000e+04
    1.7309769988e-02    8.4020929688e+04
    1.7319738865e-02    8.4003687500e+04
    1.7329970375e-02    8.3986109375e+04
    1.7339937389e-02    8.3969078125e+04
    1.7349906266e-02    8.3952164062e+04
    1.7359875143e-02    8.3935429688e+04
    1.7369844019e-02    8.3918781250e+04
    1.7379812896e-02    8.3902101562e+04
    1.7389779910e-02    8.3885453125e+04
    1.7399748787e-02    8.3868968750e+04
    1.7409980297e-02    8.3852164062e+04
    1.7419949174e-02    8.3835820312e+04
    1.7429918051e-02    8.3819585938e+04
    1.7439885065e-02    8.3803460938e+04
    1.7449853942e-02    8.3787375000e+04
    1.7459822819e-02    8.3771375000e+04
    1.7469791695e-02    8.3755554688e+04
    1.7479760572e-02    8.3739820312e+04
    1.7489990219e-02    8.3723695312e+04
    1.7499959096e-02    8.3708070312e+04
    1.7509927973e-02    8.3692585938e+04
    1.7519896850e-02    8.3677187500e+04
    1.7529863864e-02    8.3661882812e+04
    1.7539832741e-02    8.3646718750e+04
    1.7549801618e-02    8.3631609375e+04
    1.7559770495e-02    8.3616476562e+04
    1.7569739372e-02    8.3601359375e+04
    1.7579969019e-02    8.3585976562e+04
    1.7589937896e-02    8.3571140625e+04
    1.7599906772e-02    8.3556398438e+04
    1.7609873787e-02    8.3541710938e+04
    1.7619842663e-02    8.3527101562e+04
    1.7629811540e-02    8.3512601562e+04
    1.7639780417e-02    8.3498179688e+04
    1.7649747431e-02    8.3483773438e+04
    1.7659978941e-02    8.3469093750e+04
    1.7669947818e-02    8.3454914062e+04
    1.7679914832e-02    8.3440804688e+04
    1.7689883709e-02    8.3426750000e+04
    1.7699852586e-02    8.3412789062e+04
    1.7709821463e-02    8.3398914062e+04
    1.7719788477e-02    8.3385109375e+04
    1.7729757354e-02    8.3371382812e+04
    1.7739987001e-02    8.3357421875e+04
    1.7749955878e-02    8.3343960938e+04
    1.7759924755e-02    8.3330695312e+04
    1.7769891769e-02    8.3317671875e+04
    1.7779860646e-02    8.3304890625e+04
    1.7789829522e-02    8.3292289062e+04
    1.7799796537e-02    8.3279703125e+04
    1.7809765413e-02    8.3266906250e+04
    1.7819995061e-02    8.3253531250e+04
    1.7829963937e-02    8.3240570312e+04
    1.7839932814e-02    8.3227960938e+04
    1.7849899828e-02    8.3215679688e+04
    1.7859868705e-02    8.3203500000e+04
    1.7869837582e-02    8.3191164062e+04
    1.7879804596e-02    8.3178625000e+04
    1.7889773473e-02    8.3166203125e+04
    1.7899742350e-02    8.3154187500e+04
    1.7909973860e-02    8.3142046875e+04
    1.7919942737e-02    8.3130031250e+04
    1.7929911613e-02    8.3117945312e+04
    1.7939880490e-02    8.3106140625e+04
    1.7949849367e-02    8.3094554688e+04
    1.7959818244e-02    8.3082921875e+04
    1.7969787121e-02    8.3071257812e+04
    1.7979757860e-02    8.3059789062e+04
    1.7989989370e-02    8.3048195312e+04
    1.7999960110e-02    8.3036890625e+04
    1.8009928986e-02    8.3025570312e+04
    1.8019899726e-02    8.3014406250e+04
    1.8029870465e-02    8.3003406250e+04
    1.8039841205e-02    8.2992437500e+04
    1.8049811944e-02    8.2981445312e+04
    1.8059782684e-02    8.2970554688e+04
    1.8069753423e-02    8.2959835938e+04
    1.8079988658e-02    8.2948945312e+04
    1.8089959398e-02    8.2938343750e+04
    1.8099932000e-02    8.2927773438e+04
    1.8109904602e-02    8.2917312500e+04
    1.8119877204e-02    8.2906976562e+04
    1.8129849806e-02    8.2896687500e+04
    1.8139822409e-02    8.2886453125e+04
    1.8149796873e-02    8.2876335938e+04
    1.8159769475e-02    8.2866359375e+04
    1.8169742078e-02    8.2856468750e+04
    1.8179979175e-02    8.2846328125e+04
    1.8189953640e-02    8.2836468750e+04
    1.8199928105e-02    8.2826726562e+04
    1.8209902570e-02    8.2817132812e+04
    1.8219878897e-02    8.2807609375e+04
    1.8229855224e-02    8.2798117188e+04
    1.8239833415e-02    8.2788734375e+04
    1.8249809742e-02    8.2779468750e+04
    1.8259787932e-02    8.2770242188e+04
    1.8269766122e-02    8.2761046875e+04
    1.8279742450e-02    8.2751953125e+04
    1.8289983273e-02    8.2742773438e+04
    1.8299959600e-02    8.2733945312e+04
    1.8309937790e-02    8.2725132812e+04
    1.8319914117e-02    8.2716320312e+04
    1.8329890445e-02    8.2707640625e+04
    1.8339868635e-02    8.2699109375e+04
    1.8349846825e-02    8.2690617188e+04
    1.8359825015e-02    8.2682125000e+04
    1.8369803205e-02    8.2673773438e+04
    1.8379781395e-02    8.2665578125e+04
    1.8389759585e-02    8.2657421875e+04
    1.8399737775e-02    8.2649289062e+04
    1.8409978598e-02    8.2641031250e+04
    1.8419956788e-02    8.2633093750e+04
    1.8429936841e-02    8.2625250000e+04
    1.8439916894e-02    8.2617476562e+04
    1.8449896947e-02    8.2609773438e+04
    1.8459878862e-02    8.2602156250e+04
    1.8469860777e-02    8.2594664062e+04
    1.8479842693e-02    8.2587218750e+04
    1.8489828333e-02    8.2579757812e+04
    1.8499813974e-02    8.2572398438e+04
    1.8509799615e-02    8.2565242188e+04
    1.8519785255e-02    8.2558148438e+04
    1.8529772758e-02    8.2551000000e+04
    1.8539762124e-02    8.2543937500e+04
    1.8549751490e-02    8.2537062500e+04
    1.8559738994e-02    8.2530320312e+04
    1.8569990993e-02    8.2523437500e+04
    1.8579982221e-02    8.2516742188e+04
    1.8589971587e-02    8.2510101562e+04
    1.8599964678e-02    8.2503593750e+04
    1.8609955907e-02    8.2497242188e+04
    1.8619947135e-02    8.2490929688e+04
    1.8629942089e-02    8.2484601562e+04
    1.8639938906e-02    8.2478398438e+04
    1.8649935722e-02    8.2472382812e+04
    1.8659934402e-02    8.2466445312e+04
    1.8669933081e-02    8.2460507812e+04
    1.8679933622e-02    8.2454593750e+04
    1.8689934164e-02    8.2448781250e+04
    1.8699934706e-02    8.2443093750e+04
    1.8709937111e-02    8.2437523438e+04
    1.8719939515e-02    8.2432023438e+04
    1.8729945645e-02    8.2426585938e+04
    1.8739951774e-02    8.2421250000e+04
    1.8749957904e-02    8.2415968750e+04
    1.8759965897e-02    8.2410726562e+04
    1.8769975752e-02    8.2405578125e+04
    1.8779987469e-02    8.2400562500e+04
    1.8789736554e-02    8.2395726562e+04
    1.8799750134e-02    8.2390757812e+04
    1.8809761852e-02    8.2385906250e+04
    1.8819779158e-02    8.2381203125e+04
    1.8829796463e-02    8.2376578125e+04
    1.8839815632e-02    8.2371992188e+04
    1.8849834800e-02    8.2367476562e+04
    1.8859852105e-02    8.2363070312e+04
    1.8869876862e-02    8.2358765625e+04
    1.8879901618e-02    8.2354546875e+04
    1.8889928237e-02    8.2350367188e+04
    1.8899954855e-02    8.2346296875e+04
    1.8909981474e-02    8.2342351562e+04
    1.8919749185e-02    8.2338585938e+04
    1.8929781392e-02    8.2334750000e+04
    1.8939813599e-02    8.2330984375e+04
    1.8949847668e-02    8.2327312500e+04
    1.8959885463e-02    8.2323734375e+04
    1.8969923258e-02    8.2320234375e+04
    1.8979964778e-02    8.2316796875e+04
    1.8989741802e-02    8.2313539062e+04
    1.8999781460e-02    8.2310312500e+04
    1.9009828568e-02    8.2307187500e+04
    1.9019875675e-02    8.2304054688e+04
    1.9029924646e-02    8.2300968750e+04
    1.9039973617e-02    8.2298078125e+04
    1.9049756229e-02    8.2295414062e+04
    1.9059810787e-02    8.2292664062e+04
    1.9069867209e-02    8.2289937500e+04
    1.9079925492e-02    8.2287351562e+04
    1.9089983776e-02    8.2284898438e+04
    1.9099775702e-02    8.2282546875e+04
    1.9109835848e-02    8.2280179688e+04
    1.9119901583e-02    8.2277898438e+04
    1.9129965454e-02    8.2275734375e+04
    1.9139766693e-02    8.2273742188e+04
    1.9149836153e-02    8.2271789062e+04
    1.9159907475e-02    8.2269859375e+04
    1.9169980660e-02    8.2268023438e+04
    1.9179791212e-02    8.2266367188e+04
    1.9189864397e-02    8.2264734375e+04
    1.9199946895e-02    8.2263117188e+04
    1.9209761173e-02    8.2261687500e+04
    1.9219843671e-02    8.2260375000e+04
    1.9229926169e-02    8.2259109375e+04
    1.9239740446e-02    8.2257875000e+04
    1.9249824807e-02    8.2256718750e+04
    1.9259914756e-02    8.2255703125e+04
    1.9269740209e-02    8.2254781250e+04
    1.9279833883e-02    8.2253898438e+04
    1.9289923832e-02    8.2253078125e+04
    1.9299749285e-02    8.2252382812e+04
    1.9309848547e-02    8.2251796875e+04
    1.9319947809e-02    8.2251281250e+04
    1.9329784438e-02    8.2250789062e+04
    1.9339889288e-02    8.2250382812e+04
    1.9349992275e-02    8.2250148438e+04
    1.9359834492e-02    8.2250054688e+04
    1.9369944930e-02    8.2250000000e+04
    1.9379789010e-02    8.2250015625e+04
    1.9389903173e-02    8.2250132812e+04
    1.9399750978e-02    8.2250343750e+04
    1.9409867004e-02    8.2250625000e+04
    1.9419984892e-02    8.2250992188e+04
    1.9429834560e-02    8.2251484375e+04
    1.9439956173e-02    8.2252125000e+04
[...]
    1.1513993144e-01    1.0122406250e+05
    1.1514998227e-01    1.0122406250e+05
    1.1515972763e-01    1.0122405469e+05
    1.1516977847e-01    1.0122403906e+05
    1.1517983675e-01    1.0122403906e+05
    1.1518988758e-01    1.0122403125e+05
    1.1519993842e-01    1.0122402344e+05
    1.1520998925e-01    1.0122402344e+05
    1.1521973461e-01    1.0122402344e+05
    1.1522979289e-01    1.0122400781e+05
    1.1523984373e-01    1.0122400000e+05
    1.1524989456e-01    1.0122399219e+05
    1.1525994539e-01    1.0122399219e+05
    1.1527000368e-01    1.0122397656e+05
    1.1527974904e-01    1.0122397656e+05
    1.1528979987e-01    1.0122396875e+05
    1.1529985070e-01    1.0122396875e+05
    1.1530990154e-01    1.0122396094e+05
    1.1531995982e-01    1.0122396094e+05
    1.1532970518e-01    1.0122394531e+05
    1.1533975601e-01    1.0122393750e+05
    1.1534980685e-01    1.0122392969e+05
    1.1535986513e-01    1.0122392969e+05
    1.1536991596e-01    1.0122391406e+05
    1.1537996680e-01    1.0122391406e+05
    1.1538971215e-01    1.0122390625e+05
    1.1539977044e-01    1.0122389844e+05
    1.1540982127e-01    1.0122389844e+05
    1.1541987211e-01    1.0122389844e+05
    1.1542992294e-01    1.0122388281e+05
    1.1543997377e-01    1.0122387500e+05
    1.1544972658e-01    1.0122386719e+05
    1.1545977741e-01    1.0122385156e+05
    1.1546982825e-01    1.0122385156e+05
    1.1547987908e-01    1.0122385156e+05
    1.1548993737e-01    1.0122384375e+05
    1.1549998820e-01    1.0122383594e+05
    1.1550973356e-01    1.0122383594e+05
    1.1551978439e-01    1.0122382031e+05
    1.1552983522e-01    1.0122381250e+05
    1.1553989351e-01    1.0122381250e+05
    1.1554994434e-01    1.0122380469e+05
    1.1555999517e-01    1.0122378906e+05
    1.1556974053e-01    1.0122378906e+05
    1.1557979882e-01    1.0122378125e+05
    1.1558984965e-01    1.0122378125e+05
    1.1559990048e-01    1.0122377344e+05
    1.1560995132e-01    1.0122377344e+05
    1.1561970413e-01    1.0122375781e+05
    1.1562975496e-01    1.0122375781e+05
    1.1563980579e-01    1.0122375000e+05
    1.1564985663e-01    1.0122374219e+05
    1.1565990746e-01    1.0122372656e+05
    1.1566996574e-01    1.0122372656e+05
    1.1567971110e-01    1.0122371875e+05
    1.1568976194e-01    1.0122371094e+05
    1.1569981277e-01    1.0122371094e+05
    1.1570987105e-01    1.0122369531e+05
    1.1571992189e-01    1.0122369531e+05
    1.1572997272e-01    1.0122368750e+05
    1.1573971808e-01    1.0122367969e+05
    1.1574976891e-01    1.0122366406e+05
    1.1575982720e-01    1.0122366406e+05
    1.1576987803e-01    1.0122366406e+05
    1.1577992886e-01    1.0122365625e+05
    1.1578997970e-01    1.0122365625e+05
    1.1579973251e-01    1.0122364844e+05
    1.1580978334e-01    1.0122364844e+05
    1.1581983417e-01    1.0122363281e+05
    1.1582988501e-01    1.0122362500e+05
    1.1583993584e-01    1.0122361719e+05
    1.1584999412e-01    1.0122361719e+05
    1.1585973948e-01    1.0122360156e+05
    1.1586979032e-01    1.0122360156e+05
    1.1587984115e-01    1.0122359375e+05
    1.1588989943e-01    1.0122358594e+05
    1.1589995027e-01    1.0122358594e+05
    1.1590969563e-01    1.0122358594e+05
    1.1591974646e-01    1.0122357031e+05
    1.1592980474e-01    1.0122357031e+05
    1.1593985558e-01    1.0122356250e+05
    1.1594990641e-01    1.0122355469e+05
    1.1595995724e-01    1.0122353906e+05
    1.1596970260e-01    1.0122353906e+05
    1.1597976089e-01    1.0122353906e+05
    1.1598981172e-01    1.0122353125e+05
    1.1599986255e-01    1.0122352344e+05
    1.1600991338e-01    1.0122352344e+05
    1.1601997167e-01    1.0122352344e+05
    1.1602971703e-01    1.0122350781e+05
    1.1603976786e-01    1.0122350000e+05
    1.1604981869e-01    1.0122349219e+05
    1.1605986953e-01    1.0122347656e+05
    1.1606992781e-01    1.0122347656e+05
    1.1607997864e-01    1.0122347656e+05
    1.1608972400e-01    1.0122346875e+05
    1.1609977484e-01    1.0122346094e+05
    1.1610983312e-01    1.0122346094e+05
    1.1611988395e-01    1.0122346094e+05
    1.1612993479e-01    1.0122344531e+05
    1.1613998562e-01    1.0122343750e+05
    1.1614973843e-01    1.0122342969e+05
    1.1615978926e-01    1.0122342969e+05
    1.1616984010e-01    1.0122341406e+05
    1.1617989093e-01    1.0122341406e+05
    1.1618994176e-01    1.0122340625e+05
    1.1620000005e-01    1.0122339844e+05
    1.1620974541e-01    1.0122339844e+05
    1.1621979624e-01    1.0122339844e+05
    1.1622984707e-01    1.0122338281e+05
    1.1623990536e-01    1.0122337500e+05
    1.1624995619e-01    1.0122336719e+05
    1.1625970155e-01    1.0122336719e+05
    1.1626975238e-01    1.0122335156e+05
    1.1627981067e-01    1.0122335156e+05
    1.1628986150e-01    1.0122334375e+05
    1.1629991233e-01    1.0122334375e+05
    1.1630996317e-01    1.0122333594e+05
    1.1631970853e-01    1.0122333594e+05
    1.1632976681e-01    1.0122332031e+05
    1.1633981764e-01    1.0122331250e+05
    1.1634986848e-01    1.0122331250e+05
    1.1635991931e-01    1.0122330469e+05
    1.1636997759e-01    1.0122328906e+05
    1.1637972295e-01    1.0122328906e+05
    1.1638977379e-01    1.0122328125e+05
    1.1639982462e-01    1.0122328125e+05
    1.1640988290e-01    1.0122327344e+05
    1.1641993374e-01    1.0122327344e+05
    1.1642998457e-01    1.0122325781e+05
    1.1643972993e-01    1.0122325000e+05
    1.1644978076e-01    1.0122325000e+05
    1.1645983905e-01    1.0122324219e+05
    1.1646988988e-01    1.0122322656e+05
    1.1647994071e-01    1.0122322656e+05
    1.1648999155e-01    1.0122321875e+05
    1.1649974436e-01    1.0122321094e+05
    1.1650979519e-01    1.0122321094e+05
    1.1651984602e-01    1.0122321094e+05
    1.1652989686e-01    1.0122319531e+05
    1.1653994769e-01    1.0122318750e+05
    1.1654970050e-01    1.0122317969e+05
    1.1655975133e-01    1.0122317969e+05
    1.1656980217e-01    1.0122316406e+05
    1.1657985300e-01    1.0122316406e+05
    1.1658991128e-01    1.0122315625e+05
    1.1659996212e-01    1.0122314844e+05
    1.1660970747e-01    1.0122314844e+05
    1.1661975831e-01    1.0122314844e+05
    1.1662981659e-01    1.0122313281e+05
    1.1663986742e-01    1.0122312500e+05
    1.1664991826e-01    1.0122311719e+05
    1.1665996909e-01    1.0122310156e+05
    1.1666972190e-01    1.0122310156e+05
    1.1667977273e-01    1.0122310156e+05
    1.1668982357e-01    1.0122309375e+05
    1.1669987440e-01    1.0122308594e+05
    1.1670992523e-01    1.0122308594e+05
    1.1671998352e-01    1.0122308594e+05
    1.1672972888e-01    1.0122307031e+05
    1.1673977971e-01    1.0122306250e+05
    1.1674983054e-01    1.0122305469e+05
    1.1675988883e-01    1.0122303906e+05
    1.1676993966e-01    1.0122303906e+05
    1.1677999049e-01    1.0122303906e+05
    1.1678973585e-01    1.0122303125e+05
    1.1679979414e-01    1.0122302344e+05
    1.1680984497e-01    1.0122302344e+05
    1.1681989580e-01    1.0122302344e+05
    1.1682994664e-01    1.0122300781e+05
    1.1683969945e-01    1.0122300000e+05
    1.1684975028e-01    1.0122300000e+05
    1.1685980111e-01    1.0122299219e+05
    1.1686985195e-01    1.0122297656e+05
    1.1687990278e-01    1.0122297656e+05
    1.1688996106e-01    1.0122296875e+05
    1.1689970642e-01    1.0122296875e+05
    1.1690975726e-01    1.0122296094e+05
    1.1691980809e-01    1.0122296094e+05
    1.1692986637e-01    1.0122294531e+05
    1.1693991721e-01    1.0122293750e+05
    1.1694996804e-01    1.0122292969e+05
    1.1695971340e-01    1.0122292969e+05
    1.1696977168e-01    1.0122291406e+05
    1.1697982252e-01    1.0122291406e+05
    1.1698987335e-01    1.0122290625e+05
    1.1699992418e-01    1.0122289844e+05
    1.1700997502e-01    1.0122289844e+05
    1.1701972783e-01    1.0122288281e+05
    1.1702977866e-01    1.0122288281e+05
    1.1703982949e-01    1.0122287500e+05
    1.1704988033e-01    1.0122286719e+05
    1.1705993861e-01    1.0122285156e+05
    1.1706998944e-01    1.0122285156e+05
    1.1707973480e-01    1.0122285156e+05
    1.1708978564e-01    1.0122285156e+05
    1.1709983647e-01    1.0122284375e+05
    1.1710989475e-01    1.0122283594e+05
    1.1711994559e-01    1.0122283594e+05
    1.1712999642e-01    1.0122283594e+05
    1.1713974178e-01    1.0122282031e+05
    1.1714980006e-01    1.0122281250e+05
    1.1715985090e-01    1.0122280469e+05
    1.1716990173e-01    1.0122278906e+05
    1.1717995256e-01    1.0122278906e+05
    1.1718970537e-01    1.0122278125e+05
    1.1719975621e-01    1.0122277344e+05
    1.1720980704e-01    1.0122277344e+05
    1.1721985787e-01    1.0122277344e+05
    1.1722990870e-01    1.0122275781e+05
    1.1723996699e-01    1.0122275781e+05
    1.1724971235e-01    1.0122275000e+05
    1.1725976318e-01    1.0122275000e+05
    1.1726981401e-01    1.0122275000e+05
    1.1727987230e-01    1.0122274219e+05
    1.1728992313e-01    1.0122274219e+05
    1.1729997396e-01    1.0122272656e+05
    1.1730971932e-01    1.0122272656e+05
    1.1731977761e-01    1.0122272656e+05
    1.1732982844e-01    1.0122271875e+05
    1.1733987927e-01    1.0122271094e+05
    1.1734993011e-01    1.0122271094e+05
    1.1735998094e-01    1.0122269531e+05
    1.1736973375e-01    1.0122268750e+05
    1.1737978458e-01    1.0122267969e+05
    1.1738983542e-01    1.0122266406e+05
    1.1739988625e-01    1.0122266406e+05
    1.1740994453e-01    1.0122266406e+05
    1.1741999537e-01    1.0122265625e+05
    1.1742974073e-01    1.0122265625e+05
    1.1743979156e-01    1.0122264844e+05
    1.1744984984e-01    1.0122264844e+05
    1.1745990068e-01    1.0122264844e+05
    1.1746995151e-01    1.0122263281e+05
    1.1747969687e-01    1.0122262500e+05
    1.1748975515e-01    1.0122261719e+05
    1.1749980599e-01    1.0122260156e+05
    1.1750985682e-01    1.0122260156e+05
    1.1751990765e-01    1.0122259375e+05
    1.1752995849e-01    1.0122258594e+05
    1.1753971130e-01    1.0122258594e+05
    1.1754976213e-01    1.0122257031e+05
    1.1755981296e-01    1.0122257031e+05
    1.1756986380e-01    1.0122256250e+05
    1.1757992208e-01    1.0122256250e+05
    1.1758997291e-01    1.0122255469e+05
    1.1759971827e-01    1.0122255469e+05
    1.1760976911e-01    1.0122253906e+05
    1.1761982739e-01    1.0122253906e+05
    1.1762987822e-01    1.0122253125e+05
    1.1763992906e-01    1.0122253125e+05
    1.1764997989e-01    1.0122252344e+05
    1.1765973270e-01    1.0122252344e+05
    1.1766978353e-01    1.0122250781e+05
    1.1767983437e-01    1.0122250781e+05
    1.1768988520e-01    1.0122250000e+05
    1.1769993603e-01    1.0122249219e+05
    1.1770999432e-01    1.0122249219e+05
    1.1771973968e-01    1.0122247656e+05
    1.1772979051e-01    1.0122247656e+05
    1.1773984134e-01    1.0122247656e+05
    1.1774989963e-01    1.0122246875e+05
    1.1775995046e-01    1.0122246094e+05
    1.1776969582e-01    1.0122246094e+05
    1.1777974665e-01    1.0122246094e+05
    1.1778979748e-01    1.0122244531e+05
    1.1779985577e-01    1.0122243750e+05
    1.1780990660e-01    1.0122243750e+05
    1.1781995744e-01    1.0122242969e+05
    1.1782970279e-01    1.0122241406e+05
    1.1783976108e-01    1.0122241406e+05
    1.1784981191e-01    1.0122240625e+05
    1.1785986274e-01    1.0122240625e+05
    1.1786991358e-01    1.0122239844e+05
    1.1787997186e-01    1.0122239844e+05
    1.1788971722e-01    1.0122238281e+05
    1.1789976805e-01    1.0122237500e+05
    1.1790981889e-01    1.0122236719e+05
    1.1791986972e-01    1.0122235156e+05
    1.1792992800e-01    1.0122235156e+05
    1.1793997884e-01    1.0122234375e+05
    1.1794972420e-01    1.0122234375e+05
    1.1795977503e-01    1.0122233594e+05
    1.1796983331e-01    1.0122233594e+05
    1.1797988415e-01    1.0122233594e+05
    1.1798993498e-01    1.0122233594e+05
    1.1799998581e-01    1.0122232031e+05
    1.1800973862e-01    1.0122232031e+05
    1.1801978946e-01    1.0122231250e+05
    1.1802984029e-01    1.0122230469e+05
    1.1803989112e-01    1.0122230469e+05
    1.1804994196e-01    1.0122228906e+05
    1.1806000024e-01    1.0122228906e+05
    1.1806974560e-01    1.0122228125e+05
    1.1807979643e-01    1.0122227344e+05
    1.1808984727e-01    1.0122227344e+05
    1.1809990555e-01    1.0122225781e+05
    1.1810995638e-01    1.0122225000e+05
    1.1811970174e-01    1.0122224219e+05
    1.1812975258e-01    1.0122222656e+05
    1.1813981086e-01    1.0122222656e+05
    1.1814986169e-01    1.0122222656e+05
    1.1815991253e-01    1.0122221875e+05
    1.1816996336e-01    1.0122221094e+05
    1.1817971617e-01    1.0122221094e+05
    1.1818976700e-01    1.0122221094e+05
    1.1819981784e-01    1.0122219531e+05
    1.1820986867e-01    1.0122218750e+05
    1.1821991950e-01    1.0122217969e+05
    1.1822997779e-01    1.0122217969e+05
    1.1823972315e-01    1.0122216406e+05
    1.1824977398e-01    1.0122216406e+05
    1.1825982481e-01    1.0122216406e+05
    1.1826988310e-01    1.0122216406e+05
    1.1827993393e-01    1.0122215625e+05
    1.1828998476e-01    1.0122214844e+05
    1.1829973012e-01    1.0122214844e+05
    1.1830978841e-01    1.0122213281e+05
    1.1831983924e-01    1.0122213281e+05
    1.1832989007e-01    1.0122212500e+05
    1.1833994091e-01    1.0122211719e+05
    1.1834999174e-01    1.0122211719e+05
    1.1835974455e-01    1.0122210156e+05
    1.1836979538e-01    1.0122210156e+05
    1.1837984622e-01    1.0122210156e+05
    1.1838989705e-01    1.0122209375e+05
    1.1839995533e-01    1.0122209375e+05
    1.1840970069e-01    1.0122208594e+05
    1.1841975152e-01    1.0122208594e+05
    1.1842980236e-01    1.0122207031e+05
    1.1843986064e-01    1.0122206250e+05
    1.1844991148e-01    1.0122205469e+05
    1.1845996231e-01    1.0122203906e+05
    1.1846970767e-01    1.0122203906e+05
    1.1847976595e-01    1.0122203125e+05
    1.1848981678e-01    1.0122203125e+05
    1.1849986762e-01    1.0122202344e+05
    1.1850991845e-01    1.0122202344e+05
    1.1851996928e-01    1.0122202344e+05
    1.1852972209e-01    1.0122200781e+05
    1.1853977293e-01    1.0122200781e+05
    1.1854982376e-01    1.0122200000e+05
    1.1855987459e-01    1.0122199219e+05
    1.1856993288e-01    1.0122199219e+05
    1.1857998371e-01    1.0122197656e+05
    1.1858972907e-01    1.0122197656e+05
    1.1859977990e-01    1.0122197656e+05
    1.1860983819e-01    1.0122196875e+05
    1.1861988902e-01    1.0122196094e+05
    1.1862993985e-01    1.0122196094e+05
    1.1863999069e-01    1.0122196094e+05
    1.1864973605e-01    1.0122194531e+05
    1.1865979433e-01    1.0122193750e+05
    1.1866984516e-01    1.0122192969e+05
    1.1867989600e-01    1.0122192969e+05
    1.1868994683e-01    1.0122191406e+05
    1.1869969964e-01    1.0122191406e+05
    1.1870975047e-01    1.0122190625e+05
    1.1871980131e-01    1.0122190625e+05
    1.1872985214e-01    1.0122189844e+05
    1.1873991042e-01    1.0122189844e+05
    1.1874996126e-01    1.0122189844e+05
    1.1875970662e-01    1.0122188281e+05
    1.1876975745e-01    1.0122187500e+05
    1.1877980828e-01    1.0122187500e+05
    1.1878986657e-01    1.0122186719e+05
    1.1879991740e-01    1.0122185156e+05
    1.1880996823e-01    1.0122185156e+05
    1.1881971359e-01    1.0122185156e+05
    1.1882977188e-01    1.0122184375e+05
    1.1883982271e-01    1.0122183594e+05
    1.1884987354e-01    1.0122183594e+05
    1.1885992438e-01    1.0122182031e+05
    1.1886997521e-01    1.0122182031e+05
    1.1887972802e-01    1.0122181250e+05
    1.1888977885e-01    1.0122180469e+05
    1.1889982969e-01    1.0122180469e+05
    1.1890988052e-01    1.0122178906e+05
    1.1891993880e-01    1.0122178906e+05
    1.1892998964e-01    1.0122178906e+05
    1.1893973500e-01    1.0122178125e+05
    1.1894978583e-01    1.0122177344e+05
    1.1895984411e-01    1.0122177344e+05
    1.1896989495e-01    1.0122177344e+05
    1.1897994578e-01    1.0122175781e+05
    1.1898999661e-01    1.0122175000e+05
    1.1899974942e-01    1.0122175000e+05
    1.1900980026e-01    1.0122174219e+05
    1.1901985109e-01    1.0122172656e+05
    1.1902990192e-01    1.0122172656e+05
    1.1903995275e-01    1.0122172656e+05
    1.1904970556e-01    1.0122171875e+05
    1.1905975640e-01    1.0122171094e+05
    1.1906980723e-01    1.0122171094e+05
    1.1907985806e-01    1.0122171094e+05
    1.1908991635e-01    1.0122169531e+05
    1.1909996718e-01    1.0122169531e+05
    1.1910971254e-01    1.0122168750e+05
    1.1911976337e-01    1.0122167969e+05
    1.1912982166e-01    1.0122166406e+05
    1.1913987249e-01    1.0122166406e+05
    1.1914992332e-01    1.0122166406e+05
    1.1915997416e-01    1.0122165625e+05
    1.1916972697e-01    1.0122165625e+05
    1.1917977780e-01    1.0122164844e+05
    1.1918982863e-01    1.0122164844e+05
    1.1919987947e-01    1.0122164844e+05
    1.1920993030e-01    1.0122163281e+05
    1.1921998858e-01    1.0122162500e+05
    1.1922973394e-01    1.0122161719e+05
    1.1923978478e-01    1.0122161719e+05
    1.1924983561e-01    1.0122160156e+05
    1.1925989389e-01    1.0122160156e+05
    1.1926994473e-01    1.0122159375e+05
    1.1927999556e-01    1.0122159375e+05
    1.1928974092e-01    1.0122158594e+05
    1.1929979920e-01    1.0122158594e+05
    1.1930985004e-01    1.0122158594e+05
    1.1931990087e-01    1.0122157031e+05
    1.1932995170e-01    1.0122156250e+05
    1.1933970451e-01    1.0122155469e+05
    1.1934975535e-01    1.0122155469e+05
    1.1935980618e-01    1.0122153906e+05
    1.1936985701e-01    1.0122153906e+05
    1.1937990785e-01    1.0122153906e+05
    1.1938996613e-01    1.0122153125e+05
    1.1939971149e-01    1.0122152344e+05
    1.1940976232e-01    1.0122152344e+05
    1.1941981316e-01    1.0122152344e+05
    1.1942987144e-01    1.0122150781e+05
    1.1943992227e-01    1.0122150000e+05
    1.1944997311e-01    1.0122150000e+05
    1.1945971847e-01    1.0122149219e+05
    1.1946977675e-01    1.0122147656e+05
    1.1947982758e-01    1.0122147656e+05
    1.1948987842e-01    1.0122147656e+05
    1.1949992925e-01    1.0122146875e+05
    1.1950998008e-01    1.0122146094e+05
    1.1951973289e-01    1.0122146094e+05
    1.1952978373e-01    1.0122146094e+05
    1.1953983456e-01    1.0122144531e+05
    1.1954988539e-01    1.0122144531e+05
    1.1955994368e-01    1.0122143750e+05
    1.1956999451e-01    1.0122142969e+05
    1.1957973987e-01    1.0122142969e+05
    1.1958979070e-01    1.0122141406e+05
    1.1959984899e-01    1.0122141406e+05
    1.1960989982e-01    1.0122140625e+05
    1.1961995065e-01    1.0122140625e+05
    1.1962969601e-01    1.0122139844e+05
    1.1963975430e-01    1.0122139844e+05
    1.1964980513e-01    1.0122138281e+05
    1.1965985596e-01    1.0122138281e+05
    1.1966990680e-01    1.0122137500e+05
    1.1967995763e-01    1.0122136719e+05
    1.1968971044e-01    1.0122135156e+05
    1.1969976127e-01    1.0122135156e+05
    1.1970981210e-01    1.0122135156e+05
    1.1971986294e-01    1.0122134375e+05
    1.1972992122e-01    1.0122134375e+05
    1.1973997205e-01    1.0122133594e+05
    1.1974971741e-01    1.0122133594e+05
    1.1975976825e-01    1.0122133594e+05
    1.1976982653e-01    1.0122132031e+05
    1.1977987736e-01    1.0122131250e+05
    1.1978992820e-01    1.0122131250e+05
    1.1979997903e-01    1.0122130469e+05
    1.1980973184e-01    1.0122128906e+05
    1.1981978267e-01    1.0122128906e+05
    1.1982983351e-01    1.0122128906e+05
    1.1983988434e-01    1.0122128125e+05
    1.1984993517e-01    1.0122128125e+05
    1.1985999346e-01    1.0122127344e+05
    1.1986973882e-01    1.0122127344e+05
    1.1987978965e-01    1.0122127344e+05
    1.1988984048e-01    1.0122125781e+05
    1.1989989877e-01    1.0122125000e+05
    1.1990994960e-01    1.0122124219e+05
    1.1991969496e-01    1.0122124219e+05
    1.1992974579e-01    1.0122122656e+05
    1.1993980408e-01    1.0122122656e+05
    1.1994985491e-01    1.0122122656e+05
    1.1995990574e-01    1.0122121875e+05
    1.1996995658e-01    1.0122121094e+05
    1.1997970939e-01    1.0122121094e+05
    1.1998976022e-01    1.0122121094e+05
    1.1999981105e-01    1.0122119531e+05
endcurve
