Curveplot
LS-DYNA keyword deck by LS-PrePost                          
Time
Pressure
Defined Connection
Pressure @ 5 #pts=12001
* Minval=     6.5349707031e+04 at time=         0.0067998297
* Maxval=     9.1040293750e+05 at time=         0.0016798604
    0.0000000000e+00    1.0120000000e+05
    9.9485332612e-06    1.0120000000e+05
    1.9897408492e-05    1.0120000000e+05
    2.9986773370e-05    1.0120000000e+05
    3.9981568989e-05    1.0120000000e+05
    4.9988942919e-05    1.0120000000e+05
    5.9980033257e-05    1.0120000000e+05
    6.9947134762e-05    1.0120000000e+05
    7.9966317571e-05    1.0120000000e+05
    8.9992499852e-05    1.0120000000e+05
    9.9964614492e-05    1.0120000000e+05
    1.0994055629e-04    1.0120000000e+05
    1.1997588445e-04    1.0120000000e+05
    1.2999259343e-04    1.0120000000e+05
    1.3997990754e-04    1.0120000000e+05
    1.4992844081e-04    1.0120000000e+05
    1.5998170420e-04    1.0120000000e+05
    1.6998028150e-04    1.0120000000e+05
    1.7999329430e-04    1.0120000000e+05
    1.8993324193e-04    1.0120000000e+05
    1.9995303592e-04    1.0120000000e+05
    2.0996606327e-04    1.0120000000e+05
    2.1996561554e-04    1.0120000000e+05
    2.2994411120e-04    1.0120000000e+05
    2.3998152756e-04    1.0120000000e+05
    2.4998586741e-04    1.0120000000e+05
    2.5995002943e-04    1.0120000000e+05
    2.6995679946e-04    1.0120000000e+05
    2.7991016395e-04    1.0120000000e+05
    2.8998882044e-04    1.0120000000e+05
    2.9990874464e-04    1.0120000000e+05
    3.0994042754e-04    1.0120000000e+05
    3.1997787300e-04    1.0120000000e+05
    3.2991662738e-04    1.0120000000e+05
    3.3995253034e-04    1.0120000000e+05
    3.4998563933e-04    1.0120000000e+05
    3.5991441109e-04    1.0120000000e+05
    3.6993244430e-04    1.0120000000e+05
    3.7994541344e-04    1.0120000000e+05
    3.8994851639e-04    1.0120000000e+05
    3.9993997780e-04    1.0120000000e+05
    4.0991633432e-04    1.0120000000e+05
    4.1998489178e-04    1.0120000000e+05
    4.2993246461e-04    1.0120000000e+05
    4.3996894965e-04    1.0120000000e+05
    4.4998637168e-04    1.0120000000e+05
    4.5998443966e-04    1.0120000000e+05
    4.6996196033e-04    1.0120000000e+05
    4.7991651809e-04    1.0120000000e+05
    4.8995844554e-04    1.0120000000e+05
    4.9997394672e-04    1.0120000000e+05
    5.0996500067e-04    1.0120000000e+05
    5.1992782392e-04    1.0120000000e+05
    5.2997679450e-04    1.0120000000e+05
    5.3999590455e-04    1.0120000000e+05
    5.4997910047e-04    1.0120000000e+05
    5.5993301794e-04    1.0120000000e+05
    5.6997151114e-04    1.0120000000e+05
    5.7997490512e-04    1.0120000000e+05
    5.8994127903e-04    1.0120000000e+05
    5.9999187943e-04    1.0120000000e+05
    6.0987728648e-04    1.0120000000e+05
    6.1997264856e-04    1.0120000000e+05
    6.2990136212e-04    1.0120000000e+05
    6.3991284696e-04    1.0120000000e+05
    6.4987991937e-04    1.0120000000e+05
    6.5992999589e-04    1.0120000000e+05
    6.6993111977e-04    1.0120000000e+05
    6.7988655064e-04    1.0120000000e+05
    6.8992411252e-04    1.0120000000e+05
    6.9991132477e-04    1.0120000000e+05
    7.0998095907e-04    1.0120000000e+05
    7.1999814827e-04    1.0120000000e+05
    7.2995788651e-04    1.0120000000e+05
    7.3986372445e-04    1.0120000000e+05
    7.4998912169e-04    1.0120000000e+05
    7.5991731137e-04    1.0120000000e+05
    7.6992559480e-04    1.0120000000e+05
    7.7987264376e-04    1.0120000000e+05
    7.8989972826e-04    1.0120000000e+05
    7.9986295896e-04    1.0120000000e+05
    8.0990273273e-04    1.0120000000e+05
    8.1987964222e-04    1.0120000000e+05
    8.2993623801e-04    1.0120000000e+05
    8.3992391592e-04    1.0120000000e+05
    8.4999104729e-04    1.0120000000e+05
    8.5998664144e-04    1.0120000000e+05
    8.6990807904e-04    1.0120000000e+05
    8.7990728207e-04    1.0120000000e+05
    8.8998512365e-04    1.0120000000e+05
    8.9998176554e-04    1.0120000000e+05
    9.0990256285e-04    1.0120000000e+05
    9.1990013607e-04    1.0120000000e+05
    9.2997547472e-04    1.0120000000e+05
    9.3996769283e-04    1.0120000000e+05
    9.4987411285e-04    1.0120000000e+05
    9.5985602820e-04    1.0120000000e+05
    9.6991448663e-04    1.0120000000e+05
    9.7988347989e-04    1.0120000000e+05
    9.8992814310e-04    1.0120000000e+05
    9.9988002330e-04    1.0120000000e+05
    1.0099069914e-03    1.0120000000e+05
    1.0198346572e-03    1.0120000000e+05
    1.0298372945e-03    1.0120000000e+05
    1.0399172315e-03    1.0120000000e+05
    1.0498974007e-03    1.0120000000e+05
    1.0599517263e-03    1.0120000000e+05
    1.0699025588e-03    1.0120000000e+05
    1.0799265001e-03    1.0120000000e+05
    1.0898434557e-03    1.0120000000e+05
    1.0998325888e-03    1.0120000000e+05
    1.1098945979e-03    1.0120000000e+05
    1.1198455468e-03    1.0120000000e+05
    1.1298683239e-03    1.0120000000e+05
    1.1399640935e-03    1.0120000000e+05
    1.1499442626e-03    1.0120000000e+05
    1.1599961435e-03    1.0120000000e+05
    1.1699291645e-03    1.0120000000e+05
    1.1799302883e-03    1.0120000000e+05
    1.1899985839e-03    1.0120000000e+05
    1.1999420822e-03    1.0120000000e+05
    1.2099626474e-03    1.0120000000e+05
    1.2198578333e-03    1.0120000000e+05
    1.2298222864e-03    1.0120000000e+05
    1.2398570543e-03    1.0120000000e+05
    1.2499630684e-03    1.0120000000e+05
    1.2599368347e-03    1.0120000000e+05
    1.2699804502e-03    1.0120000000e+05
    1.2798878597e-03    1.0120000000e+05
    1.2898641871e-03    1.0120000000e+05
    1.2999103637e-03    1.0120000000e+05
    1.3098155614e-03    1.0120000000e+05
    1.3197892113e-03    1.0120000000e+05
    1.3298323611e-03    1.0120000000e+05
    1.3399458257e-03    1.0120000000e+05
    1.3499127235e-03    1.0120000000e+05
    1.3599488884e-03    1.0120000000e+05
    1.3698345283e-03    1.0120000000e+05
    1.3797879219e-03    1.0120000000e+05
    1.3898101170e-03    1.0120000000e+05
    1.3999019284e-03    1.0120000000e+05
    1.4098376269e-03    1.0120000000e+05
    1.4198409626e-03    1.0120000000e+05
    1.4299144968e-03    1.0120000000e+05
    1.4398256317e-03    1.0120000000e+05
    1.4498059172e-03    1.0120000000e+05
    1.4598539565e-03    1.0120000000e+05
    1.4699710300e-03    1.0120000000e+05
    1.4799212804e-03    1.0120000000e+05
    1.4899400994e-03    1.0120000000e+05
    1.4997869730e-03    1.0120000000e+05
    1.5099430457e-03    1.0120000000e+05
    1.5199256595e-03    1.0120000000e+05
    1.5299783554e-03    1.0120000000e+05
    1.5398527030e-03    1.0120000000e+05
    1.5497932909e-03    1.0120000000e+05
    1.5598032624e-03    1.0120000000e+05
    1.5698814532e-03    1.0120000000e+05
    1.5797750093e-03    1.0120000000e+05
    1.5899930149e-03    1.0120000000e+05
    1.5997665469e-03    1.0120000000e+05
    1.6098656924e-03    1.0120000000e+05
    1.6197735677e-03    1.0120000000e+05
    1.6297491966e-03    1.0120000000e+05
    1.6397935105e-03    1.0120000000e+05
    1.6499074409e-03    1.0120000000e+05
    1.6598235816e-03    1.0120000000e+05
    1.6698075924e-03    1.0120002344e+05
    1.6798604047e-03    9.1040293750e+05
    1.6899836482e-03    8.8607218750e+05
    1.6999013023e-03    8.6293481250e+05
    1.7098871758e-03    8.4042968750e+05
    1.7199425492e-03    8.1857800000e+05
    1.7297859304e-03    7.9792981250e+05
    1.7399810022e-03    7.7730481250e+05
    1.7499622190e-03    7.5787693750e+05
    1.7597249243e-03    7.3951693750e+05
    1.7698442098e-03    7.2118975000e+05
    1.7797430046e-03    7.0393825000e+05
    1.7897103680e-03    6.8714925000e+05
    1.7997412942e-03    6.7085006250e+05
    1.8098441651e-03    6.5500931250e+05
    1.8197143218e-03    6.4006575000e+05
    1.8299643416e-03    6.2508325000e+05
    1.8399843248e-03    6.1094143750e+05
    1.8497682177e-03    5.9759662500e+05
    1.8599290634e-03    5.8420006250e+05
    1.8698518397e-03    5.7155625000e+05
    1.8798446981e-03    5.5924718750e+05
    1.8899084534e-03    5.4724931250e+05
    1.8997265724e-03    5.3594837500e+05
    1.9099337514e-03    5.2457056250e+05
    1.9198929658e-03    5.1381896875e+05
    1.9299233099e-03    5.0335015625e+05
    1.9396991702e-03    4.9346646875e+05
    1.9498731708e-03    4.8350565625e+05
    1.9597897772e-03    4.7410012500e+05
    1.9697779790e-03    4.6492609375e+05
    1.9798383582e-03    4.5596646875e+05
    1.9899723120e-03    4.4722312500e+05
    1.9998396747e-03    4.3897115625e+05
    2.0097740926e-03    4.3090925000e+05
    2.0197823178e-03    4.2303121875e+05
    2.0298666786e-03    4.1533128125e+05
    2.0396742038e-03    4.0806278125e+05
    2.0499071106e-03    4.0069915625e+05
    2.0598606206e-03    3.9374587500e+05
    2.0698877051e-03    3.8694328125e+05
    2.0799897611e-03    3.8028665625e+05
    2.0898028743e-03    3.7400403125e+05
    2.0996883977e-03    3.6785390625e+05
    2.1096472628e-03    3.6182209375e+05
    2.1196806338e-03    3.5591584375e+05
    2.1297903731e-03    3.5013375000e+05
    2.1399776451e-03    3.4447243750e+05
    2.1498622373e-03    3.3912687500e+05
    2.1598213352e-03    3.3388375000e+05
    2.1698512137e-03    3.2874884375e+05
    2.1799637470e-03    3.2371212500e+05
    2.1897619590e-03    3.1895840625e+05
    2.1996342111e-03    3.1429531250e+05
    2.2099816706e-03    3.0953725000e+05
    2.2196073551e-03    3.0522425000e+05
    2.2297112737e-03    3.0081500000e+05
    2.2398955189e-03    2.9648096875e+05
    2.2497491445e-03    2.9239215625e+05
    2.2596798372e-03    2.8837021875e+05
    2.2696892265e-03    2.8441475000e+05
    2.2797784768e-03    2.8052496875e+05
    2.2899471223e-03    2.7670043750e+05
    2.2997702472e-03    2.7309700000e+05
    2.3096725345e-03    2.6955218750e+05
    2.3196348920e-03    2.6607112500e+05
    2.3296503350e-03    2.6265762500e+05
    2.3397095501e-03    2.5931276562e+05
    2.3498074152e-03    2.5603517188e+05
    2.3599390406e-03    2.5282162500e+05
    2.3696487769e-03    2.4980976562e+05
    2.3798304610e-03    2.4672245312e+05
    2.3899993394e-03    2.4370450000e+05
    2.3997616954e-03    2.4087762500e+05
    2.4099799339e-03    2.3798351562e+05
    2.4197336752e-03    2.3528382812e+05
    2.4299570359e-03    2.3251845312e+05
    2.4397149682e-03    2.2993723438e+05
    2.4499185383e-03    2.2729276562e+05
    2.4596939329e-03    2.2481504688e+05
    2.4698949419e-03    2.2228432812e+05
    2.4796482176e-03    2.1991679688e+05
    2.4898529518e-03    2.1749214062e+05
    2.4995731656e-03    2.1522531250e+05
    2.5097839534e-03    2.1290220312e+05
    2.5199574884e-03    2.1062601562e+05
    2.5296907406e-03    2.0849685938e+05
    2.5398398284e-03    2.0632154688e+05
    2.5496240705e-03    2.0427051562e+05
    2.5597270578e-03    2.0218667188e+05
    2.5699250400e-03    2.0013454688e+05
    2.5796419941e-03    1.9820973438e+05
    2.5898083113e-03    1.9624325000e+05
    2.5999392383e-03    1.9431914062e+05
    2.6096773800e-03    1.9250131250e+05
    2.6198911946e-03    1.9063492188e+05
    2.6296880096e-03    1.8887970312e+05
    2.6399334893e-03    1.8707814062e+05
    2.6497421786e-03    1.8538481250e+05
    2.6595795061e-03    1.8372137500e+05
    2.6698678266e-03    1.8201114062e+05
    2.6797493920e-03    1.8040217188e+05
    2.6896421332e-03    1.7882232812e+05
    2.6999635156e-03    1.7719610938e+05
    2.7098732535e-03    1.7566820312e+05
    2.7197957970e-03    1.7416534375e+05
    2.7297171764e-03    1.7268951562e+05
    2.7396355290e-03    1.7124039062e+05
    2.7495599352e-03    1.6981695312e+05
    2.7599267196e-03    1.6835510938e+05
    2.7698178310e-03    1.6698442188e+05
    2.7797007933e-03    1.6564109375e+05
    2.7895660605e-03    1.6432217188e+05
    2.7998408768e-03    1.6297134375e+05
    2.8096414171e-03    1.6170503125e+05
    2.8198468499e-03    1.6040885938e+05
    2.8295661323e-03    1.5919515625e+05
    2.8396705166e-03    1.5795451562e+05
    2.8497094754e-03    1.5674282812e+05
    2.8596825432e-03    1.5555910938e+05
    2.8695897199e-03    1.5440285938e+05
    2.8798587155e-03    1.5322410938e+05
    2.8896352742e-03    1.5212056250e+05
    2.8997694608e-03    1.5099484375e+05
    2.9098340310e-03    1.4989489062e+05
    2.9198341072e-03    1.4881910938e+05
    2.9297687579e-03    1.4776725000e+05
    2.9396377504e-03    1.4673917188e+05
    2.9498501681e-03    1.4569251562e+05
    2.9599934351e-03    1.4466968750e+05
    2.9696670827e-03    1.4370946875e+05
    2.9796748422e-03    1.4273139062e+05
    2.9896178748e-03    1.4177401562e+05
    2.9998905957e-03    1.4079978125e+05
    3.0097016133e-03    1.3988456250e+05
    3.0198369641e-03    1.3895264062e+05
    3.0299038626e-03    1.3803976562e+05
    3.0399025418e-03    1.3715293750e+05
    3.0498316046e-03    1.3628368750e+05
    3.0596952420e-03    1.3541951562e+05
    3.0698692426e-03    1.3455564062e+05
    3.0799731612e-03    1.3373176562e+05
    3.0896365643e-03    1.3291782812e+05
    3.0999721494e-03    1.3203337500e+05
    3.1098686159e-03    1.3126710938e+05
    3.1196970958e-03    1.3055472656e+05
    3.1298187096e-03    1.2972891406e+05
    3.1398683786e-03    1.2886443750e+05
    3.1498470344e-03    1.2811027344e+05
    3.1597551424e-03    1.2748655469e+05
    3.1699433457e-03    1.2679457031e+05
    3.1797096599e-03    1.2600637500e+05
    3.1897523440e-03    1.2518952344e+05
    3.1997216865e-03    1.2445265625e+05
    3.2099578530e-03    1.2378681250e+05
    3.2197793480e-03    1.2319034375e+05
    3.2298641745e-03    1.2255639844e+05
    3.2398721669e-03    1.2189142969e+05
    3.2498044893e-03    1.2121453906e+05
    3.2599885017e-03    1.2050985156e+05
    3.2697678544e-03    1.1983550000e+05
    3.2797944732e-03    1.1917572656e+05
    3.2897414640e-03    1.1856752344e+05
    3.2999266405e-03    1.1797102344e+05
    3.3097136766e-03    1.1739564844e+05
    3.3197344746e-03    1.1679671094e+05
    3.3299813513e-03    1.1618853125e+05
    3.3398335800e-03    1.1561637500e+05
    3.3499069978e-03    1.1503578906e+05
    3.3598926384e-03    1.1446772656e+05
    3.3697909676e-03    1.1391302344e+05
    3.3798983786e-03    1.1335678906e+05
    3.3899138216e-03    1.1281180469e+05
    3.3998365980e-03    1.1227925000e+05
    3.4099554177e-03    1.1174335156e+05
    3.4199759830e-03    1.1122132031e+05
    3.4298994578e-03    1.1070705469e+05
    3.4397249110e-03    1.1019999219e+05
    3.4497298766e-03    1.0967921094e+05
    3.4599045757e-03    1.0914680469e+05
    3.4699700773e-03    1.0862539844e+05
    3.4799252171e-03    1.0812594531e+05
    3.4897706937e-03    1.0766178906e+05
    3.4997668117e-03    1.0722083594e+05
    3.5099047236e-03    1.0678046875e+05
    3.5199185368e-03    1.0632390625e+05
    3.5298077855e-03    1.0585517969e+05
    3.5398202017e-03    1.0538507031e+05
    3.5499453079e-03    1.0492187500e+05
    3.5599288531e-03    1.0446914844e+05
    3.5697703715e-03    1.0402506250e+05
    3.5799376201e-03    1.0358711719e+05
    3.5899444483e-03    1.0318838281e+05
    3.5997892264e-03    1.0280671094e+05
    3.6099152640e-03    1.0238519531e+05
    3.6198582966e-03    1.0193949219e+05
    3.6298290361e-03    1.0150088281e+05
    3.6398109514e-03    1.0110219531e+05
    3.6499910057e-03    1.0073264844e+05
    3.6599333398e-03    1.0036988281e+05
    3.6698267795e-03    9.9979476562e+04
    3.6798368674e-03    9.9566781250e+04
    3.6899188999e-03    9.9162148438e+04
    3.6998449359e-03    9.8794195312e+04
    3.7099183537e-03    9.8451648438e+04
    3.7198860664e-03    9.8110281250e+04
    3.7299715914e-03    9.7727125000e+04
    3.7398659624e-03    9.7334726562e+04
    3.7499000318e-03    9.6971789062e+04
    3.7599289790e-03    9.6656914062e+04
    3.7699441891e-03    9.6340398438e+04
    3.7799293641e-03    9.5979085938e+04
    3.7899171002e-03    9.5604289062e+04
    3.7998654880e-03    9.5268710938e+04
    3.8099389058e-03    9.4971148438e+04
    3.8199424744e-03    9.4667187500e+04
    3.8299951702e-03    9.4316429688e+04
    3.8398867473e-03    9.3968210938e+04
    3.8498316426e-03    9.3664312500e+04
    3.8599332329e-03    9.3388539062e+04
    3.8699575234e-03    9.3081132812e+04
    3.8799291942e-03    9.2737132812e+04
    3.8898617495e-03    9.2422750000e+04
    3.8999554235e-03    9.2153617188e+04
    3.9099161513e-03    9.1882750000e+04
    3.9198319428e-03    9.1566460938e+04
    3.9298324846e-03    9.1249289062e+04
    3.9399424568e-03    9.0977085938e+04
    3.9499145932e-03    9.0725656250e+04
    3.9598164149e-03    9.0436929688e+04
    3.9699617773e-03    9.0123789062e+04
    3.9798123762e-03    8.9860273438e+04
    3.9899069816e-03    8.9617289062e+04
    3.9998786524e-03    8.9346460938e+04
    4.0099001490e-03    8.9050242188e+04
    4.0199984796e-03    8.8785625000e+04
    4.0299487300e-03    8.8554320312e+04
    4.0399543941e-03    8.8297820312e+04
    4.0498147719e-03    8.8022218750e+04
    4.0599200875e-03    8.7765898438e+04
    4.0698861703e-03    8.7539914062e+04
    4.0798773989e-03    8.7295062500e+04
    4.0899435990e-03    8.7028398438e+04
    4.0998174809e-03    8.6789914062e+04
    4.1099693626e-03    8.6565484375e+04
    4.1199345142e-03    8.6328898438e+04
    4.1299588047e-03    8.6077867188e+04
    4.1398131289e-03    8.5851312500e+04
    4.1499054059e-03    8.5633500000e+04
    4.1598500684e-03    8.5405328125e+04
    4.1697886772e-03    8.5170734375e+04
    4.1798111051e-03    8.4951273438e+04
    4.1898251511e-03    8.4740781250e+04
    4.1999104433e-03    8.4516093750e+04
    4.2098043486e-03    8.4295414062e+04
    4.2199362069e-03    8.4085007812e+04
    4.2299246415e-03    8.3878640625e+04
    4.2398818769e-03    8.3665242188e+04
    4.2499448173e-03    8.3452078125e+04
    4.2599826120e-03    8.3250984375e+04
    4.2698541656e-03    8.3052679688e+04
    4.2799967341e-03    8.2843898438e+04
    4.2898915708e-03    8.2647328125e+04
    4.2999004945e-03    8.2453812500e+04
    4.3098544702e-03    8.2261765625e+04
    4.3198880740e-03    8.2066203125e+04
    4.3299417011e-03    8.1874562500e+04
    4.3399971910e-03    8.1681695312e+04
    4.3499134481e-03    8.1489578125e+04
    4.3598110788e-03    8.1303500000e+04
    4.3699815869e-03    8.1122796875e+04
    4.3799644336e-03    8.0949875000e+04
    4.3899617158e-03    8.0772109375e+04
    4.3997811154e-03    8.0595429688e+04
    4.4098291546e-03    8.0414195312e+04
    4.4199237600e-03    8.0236625000e+04
    4.4298181310e-03    8.0065765625e+04
    4.4399583712e-03    7.9895757812e+04
    4.4498988427e-03    7.9729421875e+04
    4.4598584063e-03    7.9563796875e+04
    4.4698482379e-03    7.9397726562e+04
    4.4798622839e-03    7.9232945312e+04
    4.4898968190e-03    7.9066562500e+04
    4.4999476522e-03    7.8899367188e+04
    4.5097866096e-03    7.8737250000e+04
    4.5198849402e-03    7.8576078125e+04
    4.5297653414e-03    7.8425390625e+04
    4.5399004593e-03    7.8275570312e+04
    4.5498162508e-03    7.8129593750e+04
    4.5599825680e-03    7.7974335938e+04
    4.5699304901e-03    7.7818492188e+04
    4.5798970386e-03    7.7662265625e+04
    4.5898775570e-03    7.7512585938e+04
    4.5998701826e-03    7.7370070312e+04
    4.6098772436e-03    7.7230984375e+04
    4.6198922209e-03    7.7089687500e+04
    4.6299220994e-03    7.6943531250e+04
    4.6399622224e-03    7.6797101562e+04
    4.6497737058e-03    7.6658914062e+04
    4.6598282643e-03    7.6524460938e+04
    4.6698944643e-03    7.6392023438e+04
    4.6799639240e-03    7.6255664062e+04
    4.6897982247e-03    7.6119015625e+04
    4.6998756006e-03    7.5980984375e+04
    4.7099534422e-03    7.5850117188e+04
    4.7197923996e-03    7.5726648438e+04
    4.7298711725e-03    7.5598203125e+04
    4.7399504110e-03    7.5466156250e+04
    4.7497898340e-03    7.5338492188e+04
    4.7598695382e-03    7.5214015625e+04
    4.7699487768e-03    7.5093765625e+04
    4.7797881998e-03    7.4973828125e+04
    4.7898674384e-03    7.4846093750e+04
    4.7999462113e-03    7.4719148438e+04
    4.8097842373e-03    7.4602804688e+04
    4.8198625445e-03    7.4491156250e+04
    4.8299399205e-03    7.4379023438e+04
    4.8397770151e-03    7.4262585938e+04
    4.8498534597e-03    7.4138343750e+04
    4.8599289730e-03    7.4017398438e+04
    4.8697646707e-03    7.3908187500e+04
    4.8798392527e-03    7.3804007812e+04
    4.8899129033e-03    7.3701164062e+04
    4.8999856226e-03    7.3594109375e+04
    4.9098175950e-03    7.3485132812e+04
    4.9198884517e-03    7.3371664062e+04
    4.9299583770e-03    7.3259179688e+04
    4.9397866242e-03    7.3152031250e+04
    4.9498551525e-03    7.3045750000e+04
    4.9599232152e-03    7.2943265625e+04
    4.9699917436e-03    7.2843976562e+04
    4.9798246473e-03    7.2748453125e+04
    4.9899020232e-03    7.2650023438e+04
    4.9999835901e-03    7.2550296875e+04
    5.0098332576e-03    7.2452671875e+04
    5.0199320540e-03    7.2353906250e+04
    5.0297984853e-03    7.2259414062e+04
    5.0399112515e-03    7.2164085938e+04
    5.0497935154e-03    7.2071492188e+04
    5.0599258393e-03    7.1976867188e+04
    5.0698230043e-03    7.1885320312e+04
    5.0799674354e-03    7.1793101562e+04
    5.0898832269e-03    7.1704429688e+04
    5.0998046063e-03    7.1616187500e+04
    5.1099755801e-03    7.1525390625e+04
    5.1199141890e-03    7.1436421875e+04
    5.1298607141e-03    7.1348054688e+04
    5.1398128271e-03    7.1261125000e+04
    5.1497714594e-03    7.1175757812e+04
    5.1599866711e-03    7.1089734375e+04
    5.1699597389e-03    7.1007289062e+04
    5.1799407229e-03    7.0926406250e+04
    5.1899291575e-03    7.0846757812e+04
    5.1999283023e-03    7.0767468750e+04
    5.2099251188e-03    7.0687960938e+04
    5.2199373022e-03    7.0608296875e+04
    5.2299555391e-03    7.0529007812e+04
    5.2399821579e-03    7.0450109375e+04
    5.2497587167e-03    7.0373429688e+04
    5.2598011680e-03    7.0295562500e+04
    5.2698440850e-03    7.0220187500e+04
    5.2798921242e-03    7.0147734375e+04
    5.2899401635e-03    7.0076164062e+04
    5.2997632883e-03    7.0004281250e+04
    5.3098308854e-03    6.9928609375e+04
    5.3199031390e-03    6.9854281250e+04
    5.3299842402e-03    6.9784609375e+04
    5.3398236632e-03    6.9720562500e+04
    5.3499173373e-03    6.9654664062e+04
    5.3597651422e-03    6.9586656250e+04
    5.3698751144e-03    6.9513945312e+04
    5.3799748421e-03    6.9442703125e+04
    5.3898515180e-03    6.9377656250e+04
    5.3999722004e-03    6.9314773438e+04
    5.4098619148e-03    6.9252820312e+04
    5.4199867882e-03    6.9186125000e+04
    5.4298881441e-03    6.9119843750e+04
    5.4397867061e-03    6.9056921875e+04
    5.4499469697e-03    6.8997273438e+04
    5.4598473944e-03    6.8940367188e+04
    5.4697706364e-03    6.8879882812e+04
    5.4799425416e-03    6.8814320312e+04
    5.4898760282e-03    6.8751835938e+04
    5.4998029955e-03    6.8695023438e+04
    5.5099925958e-03    6.8640796875e+04
    5.5199386552e-03    6.8586296875e+04
    5.5298930965e-03    6.8527328125e+04
    5.5398452096e-03    6.8467164062e+04
    5.5498043075e-03    6.8410890625e+04
    5.5597722530e-03    6.8359554688e+04
    5.5699981749e-03    6.8307789062e+04
    5.5799791589e-03    6.8254046875e+04
    5.5899610743e-03    6.8198039062e+04
    5.5999495089e-03    6.8143945312e+04
    5.6099439971e-03    6.8093765625e+04
    5.6199459359e-03    6.8045031250e+04
    5.6299483404e-03    6.7994132812e+04
    5.6399572641e-03    6.7940968750e+04
    5.6499717757e-03    6.7889179688e+04
    5.6599928066e-03    6.7841437500e+04
    5.6697647087e-03    6.7797468750e+04
    5.6797936559e-03    6.7751398438e+04
    5.6898249313e-03    6.7702796875e+04
    5.6998645887e-03    6.7653750000e+04
    5.7099065743e-03    6.7607117188e+04
    5.7199532166e-03    6.7562773438e+04
    5.7297516614e-03    6.7519437500e+04
    5.7398080826e-03    6.7473742188e+04
    5.7498677634e-03    6.7428562500e+04
    5.7599334978e-03    6.7385906250e+04
    5.7697477750e-03    6.7345992188e+04
    5.7798200287e-03    6.7304117188e+04
    5.7898936793e-03    6.7260570312e+04
    5.7999752462e-03    6.7217343750e+04
    5.8098137379e-03    6.7177289062e+04
    5.8199102059e-03    6.7137789062e+04
    5.8297510259e-03    6.7099367188e+04
    5.8398419060e-03    6.7059914062e+04
    5.8499332517e-03    6.7021210938e+04
    5.8597880416e-03    6.6984039062e+04
    5.8699054644e-03    6.6945812500e+04
    5.8797691017e-03    6.6908546875e+04
    5.8898832649e-03    6.6871234375e+04
    5.8999946341e-03    6.6835140625e+04
    5.9098517522e-03    6.6800476562e+04
    5.9199621901e-03    6.6765000000e+04
    5.9298267588e-03    6.6730765625e+04
    5.9399534948e-03    6.6696304688e+04
    5.9498259798e-03    6.6663210938e+04
    5.9599485248e-03    6.6629562500e+04
    5.9698163532e-03    6.6597101562e+04
    5.9799365699e-03    6.6564320312e+04
    5.9898034669e-03    6.6532882812e+04
    5.9999218211e-03    6.6501242188e+04
    6.0097891837e-03    6.6470976562e+04
    6.0199126601e-03    6.6440460938e+04
    6.0297865421e-03    6.6411156250e+04
    6.0399160720e-03    6.6381492188e+04
    6.0497918166e-03    6.6352875000e+04
    6.0599190183e-03    6.6323890625e+04
    6.0697919689e-03    6.6296156250e+04
    6.0799173079e-03    6.6268359375e+04
    6.0897893272e-03    6.6241898438e+04
    6.0999146663e-03    6.6215250000e+04
    6.1097866856e-03    6.6189570312e+04
    6.1199115589e-03    6.6163468750e+04
    6.1297831126e-03    6.6138296875e+04
    6.1399075203e-03    6.6112898438e+04
    6.1497786082e-03    6.6088664062e+04
    6.1599025503e-03    6.6064406250e+04
    6.1697731726e-03    6.6041250000e+04
    6.1798961833e-03    6.6017890625e+04
    6.1897663400e-03    6.5995476562e+04
    6.1998888850e-03    6.5972992188e+04
    6.2097581103e-03    6.5951609375e+04
    6.2198801897e-03    6.5930140625e+04
    6.2297494151e-03    6.5909539062e+04
    6.2398710288e-03    6.5888796875e+04
    6.2499926426e-03    6.5868546875e+04
    6.2598618679e-03    6.5849203125e+04
    6.2699853443e-03    6.5829601562e+04
    6.2798568979e-03    6.5810742188e+04
    6.2899813056e-03    6.5791890625e+04
    6.2998509966e-03    6.5774140625e+04
    6.3099726103e-03    6.5756460938e+04
    6.3198404387e-03    6.5739484375e+04
    6.3299606554e-03    6.5722257812e+04
    6.3398270868e-03    6.5705820312e+04
    6.3499468379e-03    6.5689468750e+04
    6.3598155975e-03    6.5673960938e+04
    6.3699409366e-03    6.5658414062e+04
    6.3798138872e-03    6.5643609375e+04
    6.3899392262e-03    6.5628898438e+04
    6.3998112455e-03    6.5615117188e+04
    6.4099351875e-03    6.5601484375e+04
    6.4198048785e-03    6.5588515625e+04
    6.4299274236e-03    6.5575484375e+04
    6.4397957176e-03    6.5563062500e+04
    6.4499173313e-03    6.5550632812e+04
    6.4597916789e-03    6.5538835938e+04
    6.4699207433e-03    6.5527113281e+04
    6.4797946252e-03    6.5516066406e+04
    6.4899213612e-03    6.5505089844e+04
    6.4997938462e-03    6.5494750000e+04
    6.5099191852e-03    6.5484542969e+04
    6.5197958611e-03    6.5474972656e+04
    6.5299286507e-03    6.5465562500e+04
    6.5398067236e-03    6.5456792969e+04
    6.5499367192e-03    6.5448230469e+04
    6.5598133951e-03    6.5440281250e+04
    6.5699424595e-03    6.5432542969e+04
    6.5798228607e-03    6.5425363281e+04
    6.5899579786e-03    6.5418347656e+04
    6.5998383798e-03    6.5411859375e+04
    6.6099716350e-03    6.5405625000e+04
    6.6198501736e-03    6.5399957031e+04
    6.6299857572e-03    6.5394453125e+04
    6.6398708150e-03    6.5389191406e+04
    6.6497549415e-03    6.5383878906e+04
    6.6598914564e-03    6.5378464844e+04
    6.6697737202e-03    6.5373683594e+04
    6.6799120978e-03    6.5369871094e+04
    6.6897990182e-03    6.5367312500e+04
    6.6999383271e-03    6.5365125000e+04
    6.7098233849e-03    6.5362343750e+04
    6.7199617624e-03    6.5358488281e+04
    6.7298505455e-03    6.5354644531e+04
    6.7399921827e-03    6.5351941406e+04
    6.7498795688e-03    6.5351113281e+04
    6.7597664893e-03    6.5351527344e+04
    6.7699085921e-03    6.5352015625e+04
    6.7797983065e-03    6.5351703125e+04
    6.7899408750e-03    6.5350640625e+04
    6.7998296581e-03    6.5349707031e+04
    6.8099726923e-03    6.5349796875e+04
    6.8198628724e-03    6.5351136719e+04
    6.8297521211e-03    6.5353046875e+04
    6.8398951553e-03    6.5354738281e+04
    6.8497848697e-03    6.5356027344e+04
    6.8599283695e-03    6.5357675781e+04
    6.8698180839e-03    6.5360144531e+04
    6.8799606524e-03    6.5363332031e+04
    6.8898503669e-03    6.5366566406e+04
    6.8999938667e-03    6.5369933594e+04
    6.9098831154e-03    6.5373589844e+04
    6.9197723642e-03    6.5377792969e+04
    6.9299153984e-03    6.5382496094e+04
    6.9398041815e-03    6.5387261719e+04
    6.9499467500e-03    6.5392332031e+04
    6.9598350674e-03    6.5397582031e+04
    6.9699776359e-03    6.5403285156e+04
    6.9798659533e-03    6.5409144531e+04
    6.9897542708e-03    6.5415332031e+04
    6.9998959079e-03    6.5422035156e+04
    7.0097846910e-03    6.5428863281e+04
    7.0199263282e-03    6.5436105469e+04
    7.0298146456e-03    6.5443386719e+04
    7.0399562828e-03    6.5451175781e+04
    7.0498436689e-03    6.5459152344e+04
    7.0599848405e-03    6.5467707031e+04
    7.0698717609e-03    6.5476355469e+04
    7.0797591470e-03    6.5485230469e+04
    7.0899007842e-03    6.5494574219e+04
    7.0997914299e-03    6.5504078125e+04
    7.1099358611e-03    6.5514386719e+04
    7.1198265068e-03    6.5524996094e+04
    7.1299700066e-03    6.5536218750e+04
    7.1398592554e-03    6.5547250000e+04
    7.1497485042e-03    6.5558328125e+04
    7.1598906070e-03    6.5569914062e+04
    7.1697793901e-03    6.5581609375e+04
    7.1799219586e-03    6.5594039062e+04
    7.1898102760e-03    6.5606453125e+04
    7.1999519132e-03    6.5619398438e+04
    7.2098397650e-03    6.5632250000e+04
    7.2199814022e-03    6.5645750000e+04
    7.2298697196e-03    6.5659250000e+04
    7.2397594340e-03    6.5673085938e+04
    7.2499043308e-03    6.5687609375e+04
    7.2597959079e-03    6.5702070312e+04
    7.2699431330e-03    6.5717210938e+04
    7.2798407637e-03    6.5732281250e+04
    7.2899963707e-03    6.5748132812e+04
    7.2998995893e-03    6.5764039062e+04
    7.3098009452e-03    6.5780335938e+04
    7.3199598119e-03    6.5797195312e+04
    7.3298695497e-03    6.5813429688e+04
    7.3397839442e-03    6.5829304688e+04
    7.3499507271e-03    6.5845523438e+04
    7.3598595336e-03    6.5861992188e+04
    7.3697883636e-03    6.5879796875e+04
    7.3799854144e-03    6.5899484375e+04
    7.3899351992e-03    6.5919343750e+04
    7.3998863809e-03    6.5938921875e+04
    7.4098375626e-03    6.5957796875e+04
    7.4197878130e-03    6.5976257812e+04
    7.4299937114e-03    6.5995406250e+04
    7.4399472214e-03    6.6014812500e+04
    7.4499002658e-03    6.6035085938e+04
    7.4598542415e-03    6.6056039062e+04
    7.4698124081e-03    6.6077257812e+04
    7.4797719717e-03    6.6098343750e+04
    7.4899885803e-03    6.6119843750e+04
    7.4999467470e-03    6.6141117188e+04
    7.5099086389e-03    6.6163039062e+04
    7.5198770501e-03    6.6185515625e+04
    7.5298491865e-03    6.6208195312e+04
    7.5398208573e-03    6.6230960938e+04
    7.5497920625e-03    6.6253960938e+04
    7.5597721152e-03    6.6277367188e+04
    7.5697600842e-03    6.6301117188e+04
    7.5797550380e-03    6.6325109375e+04
    7.5897476636e-03    6.6349304688e+04
    7.5999991968e-03    6.6374445312e+04
    7.6097450219e-03    6.6398726562e+04
    7.6197655872e-03    6.6424109375e+04
    7.6297875494e-03    6.6449898438e+04
    7.6398085803e-03    6.6476000000e+04
    7.6498328708e-03    6.6502257812e+04
    7.6598664746e-03    6.6528632812e+04
    7.6699168421e-03    6.6555289062e+04
    7.6799695380e-03    6.6582390625e+04
    7.6897614636e-03    6.6609265625e+04
    7.6998192817e-03    6.6637234375e+04
    7.7098882757e-03    6.6665445312e+04
    7.7199661173e-03    6.6693843750e+04
    7.7297920361e-03    6.6721765625e+04
    7.7398801222e-03    6.6750718750e+04
    7.7499705367e-03    6.6779937500e+04
    7.7598113567e-03    6.6808617188e+04
    7.7699203975e-03    6.6838218750e+04
    7.7797719277e-03    6.6867273438e+04
    7.7898930758e-03    6.6897562500e+04
    7.7997595072e-03    6.6927820312e+04
    7.8098867089e-03    6.6959804688e+04
    7.8197643161e-03    6.6991664062e+04
    7.8299101442e-03    6.7024515625e+04
    7.8397989273e-03    6.7056171875e+04
    7.8499587253e-03    6.7088351562e+04
    7.8598577529e-03    6.7119890625e+04
    7.8697539866e-03    6.7152085938e+04
    7.8799268231e-03    6.7185875000e+04
    7.8898482025e-03    6.7219164062e+04
    7.8997723758e-03    6.7252546875e+04
    7.9099657014e-03    6.7287062500e+04
    7.9198963940e-03    6.7321187500e+04
    7.9298261553e-03    6.7355820312e+04
    7.9397698864e-03    6.7390804688e+04
    7.9499837011e-03    6.7426875000e+04
    7.9599376768e-03    6.7462187500e+04
    7.9698963091e-03    6.7497789062e+04
    7.9798558727e-03    6.7533671875e+04
    7.9898172989e-03    6.7569781250e+04
    7.9997908324e-03    6.7606132812e+04
    8.0097746104e-03    6.7642742188e+04
    8.0197537318e-03    6.7679632812e+04
    8.0297458917e-03    6.7716914062e+04
    8.0397380516e-03    6.7754609375e+04
    8.0499881878e-03    6.7793828125e+04
    8.0599961802e-03    6.7832703125e+04
    8.0697461963e-03    6.7871117188e+04
    8.0797551200e-03    6.7910968750e+04
    8.0897789448e-03    6.7951156250e+04
    8.0998027697e-03    6.7991492188e+04
    8.1098238006e-03    6.8031898438e+04
    8.1198634580e-03    6.8072460938e+04
    8.1299059093e-03    6.8113187500e+04
    8.1399427727e-03    6.8154125000e+04
    8.1499936059e-03    6.8195507812e+04
    8.1597836688e-03    6.8236343750e+04
    8.1698345020e-03    6.8278882812e+04
    8.1799011678e-03    6.8322101562e+04
    8.1899715587e-03    6.8365773438e+04
    8.1997718662e-03    6.8408484375e+04
    8.2098487765e-03    6.8452460938e+04
    8.2199340686e-03    6.8496546875e+04
    8.2297474146e-03    6.8539648438e+04
    8.2398392260e-03    6.8584328125e+04
    8.2499347627e-03    6.8629507812e+04
    8.2597602159e-03    6.8673976562e+04
    8.2698641345e-03    6.8720218750e+04
    8.2799792290e-03    6.8766945312e+04
    8.2898223773e-03    6.8812687500e+04
    8.2999365404e-03    6.8859851562e+04
    8.3097917959e-03    6.8905953125e+04
    8.3199096844e-03    6.8953546875e+04
    8.3297705278e-03    6.9000335938e+04
    8.3399107680e-03    6.9048937500e+04
    8.3497818559e-03    6.9096703125e+04
    8.3599230275e-03    6.9146164062e+04
    8.3698034286e-03    6.9194609375e+04
    8.3799418062e-03    6.9244507812e+04
    8.3898231387e-03    6.9293242188e+04
    8.3999847993e-03    6.9343539062e+04
    8.4098763764e-03    6.9392765625e+04
    8.4197735414e-03    6.9442382812e+04
    8.4299445152e-03    6.9493867188e+04
    8.4398444742e-03    6.9544617188e+04
    8.4497472271e-03    6.9596359375e+04
    8.4599275142e-03    6.9651195312e+04
    8.4698405117e-03    6.9706867188e+04
    8.4797609597e-03    6.9765250000e+04
    8.4899589419e-03    6.9827718750e+04
    8.4998849779e-03    6.9889554688e+04
    8.5098138079e-03    6.9950367188e+04
    8.5197519511e-03    7.0008304688e+04
    8.5299583152e-03    7.0064156250e+04
    8.5398964584e-03    7.0116367188e+04
    8.5498429835e-03    7.0169117188e+04
    8.5597913712e-03    7.0224515625e+04
    8.5697444156e-03    7.0282921875e+04
    8.5799731314e-03    7.0344703125e+04
    8.5899345577e-03    7.0404992188e+04
    8.5998978466e-03    7.0464859375e+04
    8.6098685861e-03    7.0524875000e+04
    8.6198365316e-03    7.0585671875e+04
    8.6298035458e-03    7.0647226562e+04
    8.6397835985e-03    7.0709062500e+04
    8.6497683078e-03    7.0770804688e+04
    8.6597558111e-03    7.0832617188e+04
    8.6697498336e-03    7.0894937500e+04
    8.6797466502e-03    7.0957984375e+04
    8.6897443980e-03    7.1021796875e+04
    8.6997440085e-03    7.1086390625e+04
    8.7097436190e-03    7.1151773438e+04
    8.7197488174e-03    7.1217945312e+04
    8.7297623977e-03    7.1284843750e+04
    8.7397787720e-03    7.1352320312e+04
    8.7497960776e-03    7.1420304688e+04
    8.7598171085e-03    7.1488781250e+04
    8.7698400021e-03    7.1557750000e+04
    8.7798638269e-03    7.1627210938e+04
    8.7898923084e-03    7.1697257812e+04
    8.7999273092e-03    7.1767945312e+04
    8.8099697605e-03    7.1839296875e+04
    8.8197430596e-03    7.1909351562e+04
    8.8297873735e-03    7.1982023438e+04
    8.8398326188e-03    7.2055375000e+04
    8.8498815894e-03    7.2131554688e+04
    8.8599352166e-03    8.2983273438e+04
    8.8699935004e-03    1.1311810156e+05
    8.8797854260e-03    1.1326746875e+05
    8.8898548856e-03    1.1308913281e+05
    8.8999252766e-03    1.1292014844e+05
    8.9099947363e-03    1.1275475781e+05
    8.9197941124e-03    1.1259606250e+05
    8.9298719540e-03    1.1243608594e+05
    8.9399535209e-03    1.1227867969e+05
    8.9497659355e-03    1.1212691406e+05
    8.9598558843e-03    1.1197478906e+05
    8.9699495584e-03    1.1182189844e+05
    8.9797722176e-03    1.1167833594e+05
    8.9898686856e-03    1.1153099219e+05
    8.9999679476e-03    1.1138721875e+05
    9.0097999200e-03    1.1124938281e+05
    9.0199103579e-03    1.1110961719e+05
    9.0297479182e-03    1.1097553906e+05
    9.0398611501e-03    1.1083971875e+05
    9.0499790385e-03    1.1070600000e+05
    9.0598259121e-03    1.1057791406e+05
    9.0699493885e-03    1.1044827344e+05
    9.0798027813e-03    1.1032410156e+05
    9.0899346396e-03    1.1019833594e+05
    9.0997973457e-03    1.1007760156e+05
    9.1099357232e-03    1.0995516406e+05
    9.1198012233e-03    1.0983753906e+05
    9.1299442574e-03    1.0971822656e+05
    9.1398190707e-03    1.0960347656e+05
    9.1499686241e-03    1.0948669531e+05
    9.1598471627e-03    1.0937434375e+05
    9.1697294265e-03    1.0926271875e+05
    9.1798901558e-03    1.0914836719e+05
    9.1897798702e-03    1.0903771094e+05
    9.1999461874e-03    1.0892452344e+05
    9.2098405585e-03    1.0881450781e+05
    9.2197414488e-03    1.0870422656e+05
    9.2299198732e-03    1.0859071875e+05
    9.2398254201e-03    1.0848025000e+05
    9.2497337610e-03    1.0836980469e+05
    9.2599214986e-03    1.0825562500e+05
    9.2698382214e-03    1.0814449219e+05
    9.2797568068e-03    1.0803225781e+05
    9.2899529263e-03    1.0791707031e+05
    9.2998798937e-03    1.0780413281e+05
    9.3098105863e-03    1.0769083594e+05
    9.3197403476e-03    1.0757733594e+05
    9.3299495056e-03    1.0746090625e+05
    9.3398885801e-03    1.0734677344e+05
    9.3498313800e-03    1.0723310156e+05
    9.3597769737e-03    1.0711897656e+05
    9.3697244301e-03    1.0700510156e+05
    9.3799531460e-03    1.0688808594e+05
    9.3899099156e-03    1.0677430469e+05
    9.3998704106e-03    1.0666058594e+05
    9.4098309055e-03    1.0654716406e+05
    9.4197951257e-03    1.0643400000e+05
    9.4297667965e-03    1.0632097656e+05
    9.4397403300e-03    1.0620832031e+05
    9.4499923289e-03    1.0609297656e+05
    9.4599714503e-03    1.0598107031e+05
    9.4699561596e-03    1.0586946875e+05
    9.4799436629e-03    1.0575818750e+05
    9.4899330288e-03    1.0564742969e+05
    9.4999261200e-03    1.0553696875e+05
    9.5099238679e-03    1.0542708594e+05
    9.5199281350e-03    1.0531735156e+05
    9.5299333334e-03    1.0520824219e+05
    9.5399403945e-03    1.0509942969e+05
    9.5499530435e-03    1.0499127344e+05
    9.5599703491e-03    1.0488390625e+05
    9.5699904487e-03    1.0477708594e+05
    9.5797348768e-03    1.0467343750e+05
    9.5897624269e-03    1.0456691406e+05
    9.5997964963e-03    1.0446097656e+05
    9.6098324284e-03    1.0435458594e+05
    9.6198664978e-03    1.0424860156e+05
    9.6299024299e-03    1.0414385156e+05
    9.6399448812e-03    1.0404027344e+05
    9.6499910578e-03    1.0393683594e+05
    9.6597634256e-03    1.0383671875e+05
    9.6698272973e-03    1.0373360156e+05
    9.6798995510e-03    1.0363093750e+05
    9.6899783239e-03    1.0352912500e+05
    9.6997777000e-03    1.0343132031e+05
    9.7098564729e-03    1.0333107031e+05
    9.7199343145e-03    1.0323042969e+05
    9.7297299653e-03    1.0313252344e+05
    9.7398031503e-03    1.0303253906e+05
    9.7498772666e-03    1.0293341406e+05
    9.7599541768e-03    1.0283508594e+05
    9.7697544843e-03    1.0273996875e+05
    9.7798351198e-03    1.0264260156e+05
    9.7899148241e-03    1.0254561719e+05
    9.7999926656e-03    1.0244912500e+05
    9.8097901791e-03    1.0235560156e+05
    9.8198698834e-03    1.0225977344e+05
    9.8299505189e-03    1.0216464844e+05
    9.8397517577e-03    1.0207269531e+05
    9.8498342559e-03    1.0197852344e+05
    9.8599167541e-03    1.0188467969e+05
    9.8699964583e-03    1.0179115625e+05
    9.8797986284e-03    1.0170063281e+05
    9.8898895085e-03    1.0160821094e+05
    9.8999887705e-03    1.0151664844e+05
    9.9098104984e-03    1.0142775000e+05
    9.9199125543e-03    1.0133628125e+05
    9.9297324196e-03    1.0124771094e+05
    9.9398316815e-03    1.0115716406e+05
    9.9499281496e-03    1.0106743750e+05
    9.9597433582e-03    1.0098052344e+05
    9.9698398262e-03    1.0089188281e+05
    9.9799390882e-03    1.0080328906e+05
    9.9897589535e-03    1.0071737500e+05
    9.9998619407e-03    1.0062959375e+05
    1.0009963997e-02    1.0054247656e+05
    1.0019784793e-02    1.0045841406e+05
    1.0029884055e-02    1.0037242969e+05
    1.0039982386e-02    1.0028671875e+05
    1.0049800389e-02    1.0020346094e+05
    1.0059898719e-02    1.0011796094e+05
    1.0069996119e-02    1.0003278125e+05
    1.0079814121e-02    9.9950539062e+04
    1.0089912452e-02    9.9866710938e+04
    1.0099729523e-02    9.9785898438e+04
    1.0109825060e-02    9.9703257812e+04
    1.0119920596e-02    9.9620867188e+04
    1.0129734874e-02    9.9540960938e+04
    1.0139829479e-02    9.9458992188e+04
    1.0149924085e-02    9.9377539062e+04
    1.0159737431e-02    9.9298976562e+04
    1.0169832036e-02    9.9218718750e+04
    1.0179924779e-02    9.9138664062e+04
    1.0189736262e-02    9.9060773438e+04
    1.0199827142e-02    9.8980789062e+04
    1.0209919885e-02    9.8901585938e+04
    1.0219732299e-02    9.8825250000e+04
    1.0229824111e-02    9.8747367188e+04
    1.0239916854e-02    9.8670039062e+04
    1.0249729268e-02    9.8594773438e+04
    1.0259823874e-02    9.8517289062e+04
    1.0269919410e-02    9.8439851562e+04
    1.0279736482e-02    9.8365187500e+04
    1.0289838538e-02    9.8288992188e+04
    1.0299943388e-02    9.8213335938e+04
    1.0309772566e-02    9.8140257812e+04
    1.0319883004e-02    9.8065226562e+04
    1.0329991579e-02    9.7990710938e+04
    1.0339817964e-02    9.7918406250e+04
    1.0349927470e-02    9.7844289062e+04
    1.0359754786e-02    9.7772414062e+04
    1.0369864292e-02    9.7698867188e+04
    1.0379977524e-02    9.7625789062e+04
    1.0389814153e-02    9.7555117188e+04
    1.0399934836e-02    9.7482523438e+04
    1.0409775190e-02    9.7412187500e+04
    1.0419894010e-02    9.7340210938e+04
    1.0429730639e-02    9.7270648438e+04
    1.0439847596e-02    9.7199375000e+04
    1.0449962690e-02    9.7128398438e+04
    1.0459795594e-02    9.7059773438e+04
    1.0469909757e-02    9.6989335938e+04
    1.0479742661e-02    9.6920945312e+04
    1.0489855893e-02    9.6850851562e+04
    1.0499969125e-02    9.6781343750e+04
    1.0509801097e-02    9.6713992188e+04
    1.0519914329e-02    9.6644523438e+04
    1.0529747233e-02    9.6577687500e+04
    1.0539861396e-02    9.6509273438e+04
    1.0549975559e-02    9.6440851562e+04
    1.0559807532e-02    9.6374539062e+04
    1.0569920763e-02    9.6306664062e+04
    1.0579751804e-02    9.6240539062e+04
    1.0589862242e-02    9.6173085938e+04
    1.0599972680e-02    9.6106695312e+04
    1.0609802790e-02    9.6042273438e+04
    1.0619917884e-02    9.5975960938e+04
    1.0629753582e-02    9.5910367188e+04
    1.0639871471e-02    9.5842406250e+04
    1.0649991222e-02    9.5775367188e+04
    1.0659829713e-02    9.5712398438e+04
    1.0669951327e-02    9.5649718750e+04
    1.0679795407e-02    9.5588835938e+04
    1.0689932853e-02    9.5523507812e+04
    1.0699797422e-02    9.5456554688e+04
    1.0709943250e-02    9.5386289062e+04
    1.0719809681e-02    9.5320460938e+04
    1.0729963891e-02    9.5258054688e+04
    1.0739841498e-02    9.5202085938e+04
    1.0749732144e-02    9.5147445312e+04
    1.0759919882e-02    9.5087812500e+04
    1.0769838467e-02    9.5023585938e+04
    1.0779764503e-02    9.4953773438e+04
    1.0789974593e-02    9.4880906250e+04
    1.0799909942e-02    9.4813648438e+04
    1.0809862055e-02    9.4751179688e+04
    1.0819822550e-02    9.4692687500e+04
    1.0829792358e-02    9.4636835938e+04
    1.0839774273e-02    9.4582289062e+04
    1.0849763639e-02    9.4527757812e+04
    1.0859755799e-02    9.4471414062e+04
    1.0869755410e-02    9.4412226562e+04
    1.0879766196e-02    9.4350242188e+04
    1.0889787227e-02    9.4286429688e+04
    1.0899816640e-02    9.4221781250e+04
    1.0909855366e-02    9.4157273438e+04
    1.0919910856e-02    9.4094054688e+04
    1.0929975659e-02    9.4032726562e+04
    1.0939757340e-02    9.3975039062e+04
    1.0949854739e-02    9.3916835938e+04
    1.0959981941e-02    9.3859007812e+04
    1.0969846509e-02    9.3802523438e+04
    1.0979736224e-02    9.3745382812e+04
    1.0989939794e-02    9.3686039062e+04
    1.0999871418e-02    9.3628335938e+04
    1.1009820737e-02    9.3570695312e+04
    1.1019786820e-02    9.3513226562e+04
    1.1029770598e-02    9.3455742188e+04
    1.1039772071e-02    9.3398320312e+04
    1.1049795896e-02    9.3340898438e+04
    1.1059846729e-02    9.3283500000e+04
    1.1069928296e-02    9.3226242188e+04
    1.1079741642e-02    9.3170882812e+04
    1.1089877225e-02    9.3113945312e+04
    1.1099732481e-02    9.3058835938e+04
    1.1109896004e-02    9.3002382812e+04
    1.1119768023e-02    9.2947664062e+04
    1.1129940860e-02    9.2891062500e+04
    1.1139816605e-02    9.2835617188e+04
    1.1149995960e-02    9.2777398438e+04
    1.1159900576e-02    9.2719750000e+04
    1.1169835925e-02    9.2661695312e+04
    1.1179804802e-02    9.2604148438e+04
    1.1189809069e-02    9.2547632812e+04
    1.1199859902e-02    9.2492664062e+04
    1.1209983379e-02    9.2439773438e+04
    1.1219911277e-02    9.2388742188e+04
    1.1229995638e-02    9.2336726562e+04
    1.1239944957e-02    9.2284773438e+04
    1.1249762028e-02    9.2232054688e+04
    1.1259772815e-02    9.2177843750e+04
    1.1269980110e-02    9.2121679688e+04
    1.1279680766e-02    9.2067992188e+04
    1.1289904825e-02    9.2011531250e+04
    1.1299942620e-02    9.1955625000e+04
    1.1309774593e-02    9.1901195312e+04
    1.1319754645e-02    9.1846742188e+04
    1.1329879984e-02    9.1793000000e+04
    1.1339765973e-02    9.1742679688e+04
    1.1349784210e-02    9.1692101562e+04
    1.1359933764e-02    9.1640289062e+04
    1.1369816028e-02    9.1587601562e+04
    1.1379817501e-02    9.1532148438e+04
    1.1389939114e-02    9.1476023438e+04
    1.1399766430e-02    9.1422914062e+04
    1.1409703642e-02    9.1372398438e+04
    1.1419748887e-02    9.1322437500e+04
    1.1429902166e-02    9.1271539062e+04
    1.1439736933e-02    9.1220187500e+04
    1.1449673213e-02    9.1166351562e+04
    1.1459698901e-02    9.1111976562e+04
    1.1469800025e-02    9.1058335938e+04
    1.1479983106e-02    9.1006851562e+04
    1.1489806697e-02    9.0957960938e+04
    1.1499705724e-02    9.0908750000e+04
    1.1509671807e-02    9.0856914062e+04
    1.1519690976e-02    9.0803882812e+04
    1.1529758573e-02    9.0750320312e+04
    1.1539856903e-02    9.0698898438e+04
    1.1549998075e-02    9.0648664062e+04
    1.1559712701e-02    9.0600875000e+04
    1.1569936760e-02    9.0548757812e+04
    1.1579730548e-02    9.0497257812e+04
    1.1589566246e-02    9.0445601562e+04
    1.1599926278e-02    9.0393164062e+04
    1.1609860696e-02    9.0344523438e+04
    1.1619815603e-02    9.0295539062e+04
    1.1629818007e-02    9.0244632812e+04
    1.1639881879e-02    9.0192875000e+04
    1.1649971828e-02    9.0141398438e+04
    1.1659621261e-02    9.0094195312e+04
    1.1669776402e-02    9.0044406250e+04
    1.1679995805e-02    8.9993539062e+04
    1.1689740233e-02    8.9943781250e+04
    1.1699581519e-02    8.9894148438e+04
    1.1709861457e-02    8.9843156250e+04
    1.1719785631e-02    8.9795351562e+04
    1.1729634367e-02    8.9746710938e+04
    1.1739588343e-02    8.9696914062e+04
    1.1749570258e-02    8.9646664062e+04
    1.1759563349e-02    8.9597531250e+04
    1.1769620702e-02    8.9549054688e+04
    1.1779714376e-02    8.9499460938e+04
    1.1789833196e-02    8.9449750000e+04
    1.1799983680e-02    8.9399351562e+04
    1.1809591204e-02    8.9352507812e+04
    1.1819775216e-02    8.9303429688e+04
    1.1829519644e-02    8.9256031250e+04
    1.1839817278e-02    8.9205976562e+04
    1.1849557981e-02    8.9157773438e+04
    1.1859885417e-02    8.9108335938e+04
    1.1869786307e-02    8.9061101562e+04
    1.1879677884e-02    8.9012851562e+04
    1.1889653280e-02    8.8964906250e+04
    1.1899570003e-02    8.8916710938e+04
    1.1909500696e-02    8.8869289062e+04
    1.1919999495e-02    8.8819226562e+04
    1.1929444969e-02    8.8773539062e+04
    1.1939506046e-02    8.8725773438e+04
    1.1949578300e-02    8.8677656250e+04
    1.1959681287e-02    8.8629648438e+04
    1.1969798245e-02    8.8581789062e+04
    1.1979932897e-02    8.8533210938e+04
    1.1989592575e-02    8.8487867188e+04
    1.1999717914e-02    8.8439960938e+04
    1.2009902857e-02    8.8391414062e+04
    1.2019610032e-02    8.8345851562e+04
    1.2029847130e-02    8.8297398438e+04
    1.2039601803e-02    8.8251367188e+04
    1.2049854733e-02    8.8202851562e+04
    1.2059681118e-02    8.8157468750e+04
    1.2069945224e-02    8.8109718750e+04
    1.2079696171e-02    8.8065492188e+04
    1.2089965865e-02    8.8018835938e+04
    1.2099561282e-02    8.7974687500e+04
    1.2109566480e-02    8.7928023438e+04
    1.2119816616e-02    8.7879351562e+04
    1.2129757553e-02    8.7831445312e+04
    1.2139841914e-02    8.7783250000e+04
    1.2149574235e-02    8.7737507812e+04
    1.2159845792e-02    8.7689742188e+04
    1.2169724330e-02    8.7644257812e+04
    1.2179627083e-02    8.7598992188e+04
    1.2189903297e-02    8.7552414062e+04
    1.2199721299e-02    8.7507750000e+04
    1.2209795415e-02    8.7461851562e+04
    1.2219695374e-02    8.7417187500e+04
    1.2229689397e-02    8.7372109375e+04
    1.2239960954e-02    8.7325656250e+04
    1.2249789201e-02    8.7281757812e+04
    1.2259851210e-02    8.7236632812e+04
    1.2269853614e-02    8.7191953125e+04
    1.2279820628e-02    8.7147398438e+04
    1.2289901264e-02    8.7102640625e+04
    1.2299956754e-02    8.7058000000e+04
    1.2309900485e-02    8.7014281250e+04
    1.2319944799e-02    8.6969726562e+04
    1.2329855002e-02    8.6926007812e+04
    1.2339996174e-02    8.6880960938e+04
    1.2349903584e-02    8.6836687500e+04
    1.2359933928e-02    8.6791585938e+04
    1.2369961478e-02    8.6746773438e+04
    1.2379911728e-02    8.6702289062e+04
    1.2389972806e-02    8.6657703125e+04
    1.2399894185e-02    8.6613953125e+04
    1.2409852818e-02    8.6570648438e+04
    1.2419852428e-02    8.6527867188e+04
    1.2429825962e-02    8.6485687500e+04
    1.2439970858e-02    8.6443078125e+04
    1.2449806556e-02    8.6401382812e+04
    1.2459964491e-02    8.6358015625e+04
    1.2469777837e-02    8.6315906250e+04
    1.2479877099e-02    8.6272046875e+04
    1.2489821762e-02    8.6228640625e+04
    1.2499812059e-02    8.6185289062e+04
    1.2509863824e-02    8.6142242188e+04
    1.2519954704e-02    8.6099945312e+04
    1.2529861182e-02    8.6058710938e+04
    1.2539802119e-02    8.6017742188e+04
    1.2549781241e-02    8.5976390625e+04
    1.2559788302e-02    8.5934328125e+04
    1.2569828890e-02    8.5892039062e+04
    1.2579895556e-02    8.5849578125e+04
    1.2589990161e-02    8.5807234375e+04
    1.2599878944e-02    8.5766250000e+04
    1.2609782629e-02    8.5725820312e+04
    1.2619957328e-02    8.5684390625e+04
    1.2629901990e-02    8.5643757812e+04
    1.2639882974e-02    8.5602882812e+04
    1.2649866752e-02    8.5561828125e+04
    1.2659882195e-02    8.5520906250e+04
    1.2669908814e-02    8.5480234375e+04
    1.2679951265e-02    8.5439773438e+04
    1.2689788826e-02    8.5400296875e+04
    1.2699845247e-02    8.5359906250e+04
    1.2709949166e-02    8.5319320312e+04
    1.2719819322e-02    8.5279750000e+04
    1.2729953974e-02    8.5239273438e+04
    1.2739850208e-02    8.5200039062e+04
    1.2749785557e-02    8.5160859375e+04
    1.2759977020e-02    8.5120656250e+04
    1.2769921683e-02    8.5081601562e+04
    1.2779904529e-02    8.5042523438e+04
    1.2789903209e-02    8.5003390625e+04
    1.2799903750e-02    8.4964640625e+04
    1.2809921987e-02    8.4925859375e+04
    1.2819975615e-02    8.4886859375e+04
    1.2829780579e-02    8.4849312500e+04
    1.2839835137e-02    8.4810531250e+04
    1.2849931605e-02    8.4771929688e+04
    1.2859783135e-02    8.4734523438e+04
    1.2869878672e-02    8.4696117188e+04
    1.2879759073e-02    8.4658898438e+04
    1.2889906764e-02    8.4620539062e+04
    1.2899799272e-02    8.4583296875e+04
    1.2909952551e-02    8.4545140625e+04
    1.2919894420e-02    8.4508007812e+04
    1.2929822318e-02    8.4471132812e+04
    1.2939753942e-02    8.4434351562e+04
    1.2949976139e-02    8.4396617188e+04
    1.2959949672e-02    8.4359867188e+04
    1.2969916686e-02    8.4323328125e+04
    1.2979908846e-02    8.4286898438e+04
    1.2989925221e-02    8.4250578125e+04
    1.2999936007e-02    8.4214382812e+04
    1.3009949587e-02    8.4178226562e+04
    1.3019991107e-02    8.4142062500e+04
    1.3029776514e-02    8.4106960938e+04
    1.3039818965e-02    8.4071117188e+04
    1.3049883768e-02    8.4035367188e+04
    1.3059963472e-02    8.3999851562e+04
    1.3069785200e-02    8.3965406250e+04
    1.3079875149e-02    8.3929937500e+04
    1.3089985587e-02    8.3894476562e+04
    1.3099838980e-02    8.3860265625e+04
    1.3109949417e-02    8.3825335938e+04
    1.3119824231e-02    8.3791140625e+04
    1.3129968196e-02    8.3756156250e+04
    1.3139855117e-02    8.3722195312e+04
    1.3149753213e-02    8.3688382812e+04
    1.3159918599e-02    8.3653773438e+04
    1.3169833459e-02    8.3620054688e+04
    1.3179756701e-02    8.3586781250e+04
    1.3189945370e-02    8.3552640625e+04
    1.3199886307e-02    8.3519484375e+04
    1.3209829107e-02    8.3486476562e+04
    1.3219785877e-02    8.3453500000e+04
    1.3229752891e-02    8.3420726562e+04
    1.3239978813e-02    8.3387156250e+04
    1.3249950483e-02    8.3354476562e+04
    1.3259937055e-02    8.3321843750e+04
    1.3269930147e-02    8.3289382812e+04
    1.3279926032e-02    8.3257179688e+04
    1.3289927505e-02    8.3225132812e+04
    1.3299938291e-02    8.3193054688e+04
    1.3309956528e-02    8.3161148438e+04
    1.3319981284e-02    8.3129460938e+04
    1.3329753652e-02    8.3098859375e+04
    1.3339789584e-02    8.3067429688e+04
    1.3349828310e-02    8.3036015625e+04
    1.3359877281e-02    8.3004687500e+04
    1.3369932771e-02    8.2973476562e+04
    1.3379988261e-02    8.2942492188e+04
    1.3389792293e-02    8.2912562500e+04
    1.3399862684e-02    8.2882062500e+04
    1.3409940526e-02    8.2851515625e+04
    1.3419763185e-02    8.2821679688e+04
    1.3429845683e-02    8.2791453125e+04
    1.3439937495e-02    8.2761445312e+04
    1.3449775986e-02    8.2732015625e+04
    1.3459876180e-02    8.2701984375e+04
    1.3469980098e-02    8.2672375000e+04
    1.3479826972e-02    8.2643554688e+04
    1.3489939272e-02    8.2614000000e+04
    1.3499800116e-02    8.2585453125e+04
    1.3509920798e-02    8.2556234375e+04
    1.3519787230e-02    8.2527734375e+04
    1.3529913500e-02    8.2498734375e+04
    1.3539788313e-02    8.2470531250e+04
    1.3549930416e-02    8.2441781250e+04
    1.3559812680e-02    8.2413968750e+04
    1.3569956645e-02    8.2385554688e+04
    1.3579842634e-02    8.2358117188e+04
    1.3589986600e-02    8.2330023438e+04
    1.3599880040e-02    8.2302757812e+04
    1.3609771617e-02    8.2275539062e+04
    1.3619930483e-02    8.2247789062e+04
    1.3629835099e-02    8.2220890625e+04
    1.3639742509e-02    8.2194195312e+04
    1.3649911620e-02    8.2166867188e+04
    1.3659819961e-02    8.2140375000e+04
    1.3669988140e-02    8.2113351562e+04
    1.3679895550e-02    8.2087210938e+04
    1.3689802960e-02    8.2061171875e+04
    1.3699970208e-02    8.2034578125e+04
    1.3709877618e-02    8.2008843750e+04
    1.3719784096e-02    8.1983218750e+04
    1.3729952276e-02    8.1957109375e+04
    1.3739860617e-02    8.1931726562e+04
    1.3749768957e-02    8.1906437500e+04
    1.3759939931e-02    8.1880742188e+04
    1.3769851066e-02    8.1855796875e+04
    1.3779762201e-02    8.1830828125e+04
    1.3789935969e-02    8.1805578125e+04
    1.3799848035e-02    8.1781304688e+04
    1.3809761032e-02    8.1756734375e+04
    1.3819934800e-02    8.1731765625e+04
    1.3829847798e-02    8.1707843750e+04
    1.3839761727e-02    8.1683492188e+04
    1.3849935494e-02    8.1658984375e+04
    1.3859849423e-02    8.1635734375e+04
    1.3869763352e-02    8.1611914062e+04
    1.3879938982e-02    8.1588078125e+04
    1.3889854774e-02    8.1565085938e+04
    1.3899770565e-02    8.1541765625e+04
    1.3909948990e-02    8.1518546875e+04
    1.3919865713e-02    8.1495507812e+04
    1.3929783367e-02    8.1472835938e+04
    1.3939961791e-02    8.1449492188e+04
    1.3949880376e-02    8.1426859375e+04
    1.3959799893e-02    8.1404398438e+04
    1.3969980180e-02    8.1381554688e+04
    1.3979900628e-02    8.1359539062e+04
    1.3989820145e-02    8.1337562500e+04
    1.3999740593e-02    8.1315710938e+04
    1.4009922743e-02    8.1293546875e+04
    1.4019843191e-02    8.1272039062e+04
    1.4029763639e-02    8.1250718750e+04
    1.4039944857e-02    8.1228890625e+04
    1.4049866237e-02    8.1207554688e+04
    1.4059786685e-02    8.1186468750e+04
    1.4069970697e-02    8.1164968750e+04
    1.4079893939e-02    8.1144054688e+04
    1.4089820907e-02    8.1123515625e+04
    1.4099751599e-02    8.1103742188e+04
    1.4109948650e-02    8.1082906250e+04
    1.4119885862e-02    8.1062460938e+04
    1.4129822142e-02    8.1043390625e+04
    1.4139756560e-02    8.1023585938e+04
    1.4149951749e-02    8.1002617188e+04
    1.4159884304e-02    8.0983656250e+04
    1.4169816859e-02    8.0963945312e+04
    1.4179749414e-02    8.0943773438e+04
    1.4189945534e-02    8.0924265625e+04
    1.4199884608e-02    8.0905054688e+04
    1.4209824614e-02    8.0885890625e+04
    1.4219764620e-02    8.0867507812e+04
    1.4229965396e-02    8.0848250000e+04
    1.4239905402e-02    8.0829664062e+04
    1.4249844477e-02    8.0811312500e+04
    1.4259784482e-02    8.0792789062e+04
    1.4269986190e-02    8.0774351562e+04
    1.4279926196e-02    8.0756218750e+04
    1.4289865270e-02    8.0738328125e+04
    1.4299805276e-02    8.0720539062e+04
    1.4309745282e-02    8.0702851562e+04
    1.4319947921e-02    8.0685117188e+04
    1.4329888858e-02    8.0667812500e+04
    1.4339829795e-02    8.0650539062e+04
    1.4349769801e-02    8.0633398438e+04
    1.4359972440e-02    8.0616015625e+04
    1.4369912446e-02    8.0599109375e+04
    1.4379853383e-02    8.0582226562e+04
    1.4389795251e-02    8.0565562500e+04
    1.4399997890e-02    8.0548851562e+04
    1.4409939758e-02    8.0532578125e+04
    1.4419880696e-02    8.0516101562e+04
    1.4429821633e-02    8.0500250000e+04
    1.4439763501e-02    8.0484875000e+04
    1.4449966140e-02    8.0468218750e+04
    1.4459908009e-02    8.0452265625e+04
    1.4469849877e-02    8.0437500000e+04
    1.4479791746e-02    8.0421570312e+04
    1.4489994384e-02    8.0405367188e+04
    1.4499936253e-02    8.0391140625e+04
    1.4509878121e-02    8.0375781250e+04
    1.4519819990e-02    8.0360398438e+04
    1.4529761858e-02    8.0345953125e+04
    1.4539965428e-02    8.0330679688e+04
    1.4549908228e-02    8.0315960938e+04
    1.4559850097e-02    8.0301945312e+04
    1.4569791965e-02    8.0287757812e+04
    1.4579995535e-02    8.0273273438e+04
    1.4589938335e-02    8.0259398438e+04
    1.4599880204e-02    8.0245367188e+04
    1.4609823003e-02    8.0231507812e+04
    1.4619765803e-02    8.0217851562e+04
    1.4629969373e-02    8.0203757812e+04
    1.4639912173e-02    8.0190257812e+04
    1.4649854042e-02    8.0176898438e+04
    1.4659796841e-02    8.0163570312e+04
    1.4669739641e-02    8.0150539062e+04
    1.4679943211e-02    8.0137476562e+04
    1.4689886011e-02    8.0124789062e+04
    1.4699828811e-02    8.0112218750e+04
    1.4709771611e-02    8.0099914062e+04
    1.4719976112e-02    8.0087085938e+04
    1.4729918912e-02    8.0074671875e+04
    1.4739861712e-02    8.0062687500e+04
    1.4749804512e-02    8.0050695312e+04
    1.4759747311e-02    8.0038414062e+04
    1.4769952744e-02    8.0026039062e+04
    1.4779895544e-02    8.0014687500e+04
    1.4789838344e-02    8.0002921875e+04
    1.4799781144e-02    7.9990984375e+04
    1.4809986576e-02    7.9980140625e+04
    1.4819929376e-02    7.9968984375e+04
    1.4829873107e-02    7.9957046875e+04
    1.4839815907e-02    7.9946656250e+04
    1.4849759638e-02    7.9935828125e+04
    1.4859965071e-02    7.9924015625e+04
    1.4869907871e-02    7.9913906250e+04
    1.4879851602e-02    7.9903500000e+04
    1.4889795333e-02    7.9892640625e+04
    1.4899739064e-02    7.9882687500e+04
    1.4909944497e-02    7.9872226562e+04
    1.4919888228e-02    7.9862203125e+04
    1.4929832891e-02    7.9852460938e+04
    1.4939776622e-02    7.9842531250e+04
    1.4949982055e-02    7.9832664062e+04
    1.4959926717e-02    7.9823046875e+04
    1.4969870448e-02    7.9813492188e+04
    1.4979815111e-02    7.9804125000e+04
    1.4989759773e-02    7.9794664062e+04
    1.4999966137e-02    7.9785218750e+04
    1.5009910800e-02    7.9776195312e+04
    1.5019855462e-02    7.9767148438e+04
    1.5029801056e-02    7.9758398438e+04
    1.5039745718e-02    7.9749656250e+04
    1.5049952082e-02    7.9740929688e+04
    1.5059896745e-02    7.9732382812e+04
    1.5069841407e-02    7.9723648438e+04
    1.5079787001e-02    7.9715382812e+04
    1.5089995228e-02    7.9707125000e+04
    1.5099940822e-02    7.9698984375e+04
    1.5109887347e-02    7.9690765625e+04
    1.5119833872e-02    7.9683031250e+04
    1.5129780397e-02    7.9675539062e+04
    1.5139988624e-02    7.9667148438e+04
    1.5149935149e-02    7.9659906250e+04
    1.5159881674e-02    7.9652867188e+04
    1.5169829130e-02    7.9644843750e+04
    1.5179775655e-02    7.9637804688e+04
    1.5189985745e-02    7.9630921875e+04
    1.5199933201e-02    7.9623304688e+04
    1.5209880657e-02    7.9616382812e+04
    1.5219829045e-02    7.9610195312e+04
    1.5229776502e-02    7.9602835938e+04
    1.5239985660e-02    7.9596359375e+04
    1.5249934047e-02    7.9589921875e+04
    1.5259881504e-02    7.9583007812e+04
    1.5269829892e-02    7.9577351562e+04
    1.5279778279e-02    7.9571132812e+04
    1.5289988369e-02    7.9564640625e+04
    1.5299937688e-02    7.9558828125e+04
    1.5309886076e-02    7.9553203125e+04
    1.5319835395e-02    7.9547664062e+04
    1.5329784714e-02    7.9541960938e+04
    1.5339996666e-02    7.9536257812e+04
    1.5349946916e-02    7.9530953125e+04
    1.5359896235e-02    7.9525757812e+04
    1.5369846486e-02    7.9520765625e+04
    1.5379796736e-02    7.9515593750e+04
    1.5389746986e-02    7.9510757812e+04
    1.5399958938e-02    7.9505960938e+04
    1.5409909189e-02    7.9501421875e+04
    1.5419859439e-02    7.9496796875e+04
    1.5429809690e-02    7.9492578125e+04
    1.5439760871e-02    7.9488437500e+04
    1.5449973755e-02    7.9483914062e+04
    1.5459924936e-02    7.9480164062e+04
    1.5469877049e-02    7.9476593750e+04
    1.5479828231e-02    7.9472289062e+04
    1.5489779413e-02    7.9467929688e+04
    1.5499993227e-02    7.9465156250e+04
    1.5509945340e-02    7.9461664062e+04
    1.5519897453e-02    7.9457421875e+04
    1.5529849567e-02    7.9454492188e+04
    1.5539801680e-02    7.9451578125e+04
    1.5549754724e-02    7.9448156250e+04
    1.5559968539e-02    7.9446382812e+04
    1.5569921583e-02    7.9445054688e+04
    1.5579875559e-02    7.9442507812e+04
    1.5589828603e-02    7.9440898438e+04
    1.5599781647e-02    7.9439234375e+04
    1.5609996393e-02    7.9437695312e+04
    1.5619950369e-02    7.9436578125e+04
    1.5629904345e-02    7.9435187500e+04
    1.5639858320e-02    7.9433273438e+04
    1.5649812296e-02    7.9431070312e+04
    1.5659766272e-02    7.9428414062e+04
    1.5669982880e-02    7.9426015625e+04
    1.5679936856e-02    7.9424140625e+04
    1.5689892694e-02    7.9422898438e+04
    1.5699846670e-02    7.9422398438e+04
    1.5709802508e-02    7.9422273438e+04
    1.5719756484e-02    7.9422609375e+04
    1.5729974955e-02    7.9423101562e+04
    1.5739928931e-02    7.9423875000e+04
    1.5749884769e-02    7.9424453125e+04
    1.5759840608e-02    7.9424867188e+04
    1.5769796446e-02    7.9425046875e+04
    1.5779754147e-02    7.9425445312e+04
    1.5789970756e-02    7.9425500000e+04
    1.5799928457e-02    7.9425601562e+04
    1.5809884295e-02    7.9426140625e+04
    1.5819840133e-02    7.9427359375e+04
    1.5829797834e-02    7.9428125000e+04
    1.5839755535e-02    7.9429492188e+04
    1.5849974006e-02    7.9431929688e+04
    1.5859931707e-02    7.9433812500e+04
    1.5869889408e-02    7.9435882812e+04
    1.5879845247e-02    7.9439578125e+04
    1.5889802948e-02    7.9442875000e+04
    1.5899762511e-02    7.9445335938e+04
    1.5909980983e-02    7.9449406250e+04
    1.5919940546e-02    7.9453984375e+04
    1.5929898247e-02    7.9457734375e+04
    1.5939855948e-02    7.9462015625e+04
    1.5949813649e-02    7.9466796875e+04
    1.5959773213e-02    7.9471046875e+04
    1.5969993547e-02    7.9475562500e+04
    1.5979953110e-02    7.9480226562e+04
    1.5989910811e-02    7.9484531250e+04
    1.5999870375e-02    7.9489125000e+04
    1.6009829938e-02    7.9493781250e+04
    1.6019789502e-02    7.9498500000e+04
    1.6029749066e-02    7.9503671875e+04
    1.6039971262e-02    7.9509304688e+04
    1.6049930826e-02    7.9515406250e+04
    1.6059890389e-02    7.9521875000e+04
    1.6069849953e-02    7.9528773438e+04
    1.6079809517e-02    7.9536070312e+04
    1.6089770943e-02    7.9543750000e+04
    1.6099993140e-02    7.9551960938e+04
    1.6109952703e-02    7.9559921875e+04
    1.6119914129e-02    7.9568023438e+04
    1.6129873693e-02    7.9576375000e+04
    1.6139835119e-02    7.9584742188e+04
    1.6149796546e-02    7.9592968750e+04
    1.6159757972e-02    7.9601617188e+04
    1.6169980168e-02    7.9611062500e+04
    1.6179941595e-02    7.9620054688e+04
    1.6189903021e-02    7.9629375000e+04
    1.6199864447e-02    7.9639789062e+04
    1.6209825873e-02    7.9649976562e+04
    1.6219787300e-02    7.9660015625e+04
    1.6229750589e-02    7.9671312500e+04
    1.6239974648e-02    7.9682976562e+04
    1.6249936074e-02    7.9694023438e+04
    1.6259897500e-02    7.9705890625e+04
    1.6269860789e-02    7.9717898438e+04
    1.6279822215e-02    7.9729632812e+04
    1.6289785504e-02    7.9741851562e+04
    1.6299746931e-02    7.9754484375e+04
    1.6309972852e-02    7.9767539062e+04
    1.6319936141e-02    7.9780781250e+04
    1.6329897568e-02    7.9794382812e+04
    1.6339860857e-02    7.9808171875e+04
    1.6349824145e-02    7.9822421875e+04
    1.6359787434e-02    7.9837000000e+04
    1.6369750723e-02    7.9851968750e+04
    1.6379976645e-02    7.9867742188e+04
    1.6389939934e-02    7.9883359375e+04
    1.6399903223e-02    7.9899289062e+04
    1.6409866512e-02    7.9915351562e+04
    1.6419831663e-02    7.9931562500e+04
    1.6429794952e-02    7.9947992188e+04
    1.6439758241e-02    7.9964789062e+04
    1.6449984163e-02    7.9982539062e+04
    1.6459949315e-02    8.0000281250e+04
    1.6469912603e-02    8.0018375000e+04
    1.6479877755e-02    8.0036757812e+04
    1.6489842907e-02    8.0055296875e+04
    1.6499806195e-02    8.0073906250e+04
    1.6509771347e-02    8.0092828125e+04
    1.6519997269e-02    8.0112757812e+04
    1.6529962420e-02    8.0132359375e+04
    1.6539927572e-02    8.0152132812e+04
    1.6549892724e-02    8.0172601562e+04
    1.6559857875e-02    8.0193328125e+04
    1.6569823027e-02    8.0213898438e+04
    1.6579788178e-02    8.0235203125e+04
    1.6589753330e-02    8.0257085938e+04
    1.6599981114e-02    8.0279156250e+04
    1.6609946266e-02    8.0300914062e+04
    1.6619911417e-02    8.0323046875e+04
    1.6629878432e-02    8.0345023438e+04
    1.6639843583e-02    8.0367390625e+04
    1.6649808735e-02    8.0390414062e+04
    1.6659775749e-02    8.0413695312e+04
    1.6669740900e-02    8.0437320312e+04
    1.6679968685e-02    8.0462078125e+04
    1.6689935699e-02    8.0486539062e+04
    1.6699900851e-02    8.0511437500e+04
    1.6709867865e-02    8.0536687500e+04
    1.6719834879e-02    8.0561937500e+04
    1.6729800031e-02    8.0587148438e+04
    1.6739767045e-02    8.0612273438e+04
    1.6749996692e-02    8.0638023438e+04
    1.6759961843e-02    8.0663171875e+04
    1.6769928858e-02    8.0688398438e+04
    1.6779895872e-02    8.0713835938e+04
    1.6789862886e-02    8.0739648438e+04
    1.6799829900e-02    8.0766000000e+04
    1.6809796914e-02    8.0792914062e+04
    1.6819763929e-02    8.0820382812e+04
    1.6829993576e-02    8.0849148438e+04
    1.6839960590e-02    8.0877726562e+04
    1.6849927604e-02    8.0906710938e+04
    1.6859894618e-02    8.0936023438e+04
    1.6869861633e-02    8.0965742188e+04
    1.6879828647e-02    8.0995671875e+04
    1.6889795661e-02    8.1025515625e+04
    1.6899764538e-02    8.1055492188e+04
    1.6909994185e-02    8.1086593750e+04
    1.6919961199e-02    8.1116710938e+04
    1.6929928213e-02    8.1146656250e+04
    1.6939897090e-02    8.1177117188e+04
    1.6949864104e-02    8.1207820312e+04
    1.6959831119e-02    8.1238398438e+04
    1.6969799995e-02    8.1269312500e+04
    1.6979767010e-02    8.1300570312e+04
    1.6989996657e-02    8.1332789062e+04
    1.6999965534e-02    8.1364601562e+04
    1.7009932548e-02    8.1396867188e+04
    1.7019901425e-02    8.1429406250e+04
    1.7029868439e-02    8.1462265625e+04
    1.7039837316e-02    8.1495406250e+04
    1.7049806193e-02    8.1528789062e+04
    1.7059773207e-02    8.1562468750e+04
    1.7069742084e-02    8.1596375000e+04
    1.7079971731e-02    8.1631406250e+04
    1.7089940608e-02    8.1665796875e+04
    1.7099909484e-02    8.1700429688e+04
    1.7109876499e-02    8.1735343750e+04
    1.7119845375e-02    8.1770507812e+04
    1.7129814252e-02    8.1805921875e+04
    1.7139781266e-02    8.1841617188e+04
    1.7149750143e-02    8.1877585938e+04
    1.7159981653e-02    8.1914765625e+04
    1.7169948667e-02    8.1951234375e+04
    1.7179917544e-02    8.1987976562e+04
    1.7189886421e-02    8.2025062500e+04
    1.7199855298e-02    8.2062445312e+04
    1.7209822312e-02    8.2100039062e+04
    1.7219791189e-02    8.2137906250e+04
    1.7229760066e-02    8.2176273438e+04
    1.7239989713e-02    8.2216078125e+04
    1.7249958590e-02    8.2255054688e+04
    1.7259927467e-02    8.2294414062e+04
    1.7269896343e-02    8.2334289062e+04
    1.7279865220e-02    8.2374312500e+04
    1.7289832234e-02    8.2414445312e+04
    1.7299801111e-02    8.2455101562e+04
    1.7309769988e-02    8.2496046875e+04
    1.7319738865e-02    8.2536992188e+04
    1.7329970375e-02    8.2579375000e+04
    1.7339937389e-02    8.2621085938e+04
    1.7349906266e-02    8.2662929688e+04
    1.7359875143e-02    8.2705101562e+04
    1.7369844019e-02    8.2747742188e+04
    1.7379812896e-02    8.2790679688e+04
    1.7389779910e-02    8.2834000000e+04
    1.7399748787e-02    8.2877820312e+04
    1.7409980297e-02    8.2923320312e+04
    1.7419949174e-02    8.2968195312e+04
    1.7429918051e-02    8.3013640625e+04
    1.7439885065e-02    8.3059656250e+04
    1.7449853942e-02    8.3106289062e+04
    1.7459822819e-02    8.3153531250e+04
    1.7469791695e-02    8.3201375000e+04
    1.7479760572e-02    8.3249804688e+04
    1.7489990219e-02    8.3300093750e+04
    1.7499959096e-02    8.3349625000e+04
    1.7509927973e-02    8.3399671875e+04
    1.7519896850e-02    8.3450179688e+04
    1.7529863864e-02    8.3501156250e+04
    1.7539832741e-02    8.3552585938e+04
    1.7549801618e-02    8.3604476562e+04
    1.7559770495e-02    8.3656796875e+04
    1.7569739372e-02    8.3709421875e+04
    1.7579969019e-02    8.3763781250e+04
    1.7589937896e-02    8.3817265625e+04
    1.7599906772e-02    8.3871289062e+04
    1.7609873787e-02    8.3925757812e+04
    1.7619842663e-02    8.3980757812e+04
    1.7629811540e-02    8.4036421875e+04
    1.7639780417e-02    8.4092554688e+04
    1.7649747431e-02    8.4148976562e+04
    1.7659978941e-02    8.4207453125e+04
    1.7669947818e-02    8.4264914062e+04
    1.7679914832e-02    8.4322507812e+04
    1.7689883709e-02    8.4380320312e+04
    1.7699852586e-02    8.4438476562e+04
    1.7709821463e-02    8.4496804688e+04
    1.7719788477e-02    8.4555375000e+04
    1.7729757354e-02    8.4614429688e+04
    1.7739987001e-02    8.4675554688e+04
    1.7749955878e-02    8.4735625000e+04
    1.7759924755e-02    8.4796343750e+04
    1.7769891769e-02    8.4857812500e+04
    1.7779860646e-02    8.4920148438e+04
    1.7789829522e-02    8.4983546875e+04
    1.7799796537e-02    8.5048984375e+04
    1.7809765413e-02    8.5158335938e+04
    1.7819995061e-02    8.7120648438e+04
    1.7829963937e-02    9.6502664062e+04
    1.7839932814e-02    9.5688523438e+04
    1.7849899828e-02    9.5667960938e+04
    1.7859868705e-02    9.5719289062e+04
    1.7869837582e-02    9.5697367188e+04
    1.7879804596e-02    9.5646070312e+04
    1.7889773473e-02    9.5586585938e+04
    1.7899742350e-02    9.5527414062e+04
    1.7909973860e-02    9.5467531250e+04
    1.7919942737e-02    9.5411929688e+04
    1.7929911613e-02    9.5363656250e+04
    1.7939880490e-02    9.5313164062e+04
    1.7949849367e-02    9.5262976562e+04
    1.7959818244e-02    9.5216148438e+04
    1.7969787121e-02    9.5171023438e+04
    1.7979757860e-02    9.5124804688e+04
    1.7989989370e-02    9.5076351562e+04
    1.7999960110e-02    9.5030398438e+04
    1.8009928986e-02    9.4986460938e+04
    1.8019899726e-02    9.4943601562e+04
    1.8029870465e-02    9.4900617188e+04
    1.8039841205e-02    9.4858257812e+04
    1.8049811944e-02    9.4817007812e+04
    1.8059782684e-02    9.4776531250e+04
    1.8069753423e-02    9.4736781250e+04
    1.8079988658e-02    9.4696500000e+04
    1.8089959398e-02    9.4658226562e+04
    1.8099932000e-02    9.4620539062e+04
    1.8109904602e-02    9.4583710938e+04
    1.8119877204e-02    9.4547429688e+04
    1.8129849806e-02    9.4512101562e+04
    1.8139822409e-02    9.4477210938e+04
    1.8149796873e-02    9.4442914062e+04
    1.8159769475e-02    9.4409132812e+04
    1.8169742078e-02    9.4376273438e+04
    1.8179979175e-02    9.4343031250e+04
    1.8189953640e-02    9.4311273438e+04
    1.8199928105e-02    9.4279929688e+04
    1.8209902570e-02    9.4249601562e+04
    1.8219878897e-02    9.4219554688e+04
    1.8229855224e-02    9.4190195312e+04
    1.8239833415e-02    9.4161937500e+04
    1.8249809742e-02    9.4133179688e+04
    1.8259787932e-02    9.4105414062e+04
    1.8269766122e-02    9.4078960938e+04
    1.8279742450e-02    9.4052289062e+04
    1.8289983273e-02    9.4025132812e+04
    1.8299959600e-02    9.3999664062e+04
    1.8309937790e-02    9.3974773438e+04
    1.8319914117e-02    9.3950281250e+04
    1.8329890445e-02    9.3926460938e+04
    1.8339868635e-02    9.3903031250e+04
    1.8349846825e-02    9.3880250000e+04
    1.8359825015e-02    9.3858156250e+04
    1.8369803205e-02    9.3836601562e+04
    1.8379781395e-02    9.3815914062e+04
    1.8389759585e-02    9.3795687500e+04
    1.8399737775e-02    9.3775648438e+04
    1.8409978598e-02    9.3755414062e+04
    1.8419956788e-02    9.3736007812e+04
    1.8429936841e-02    9.3716773438e+04
    1.8439916894e-02    9.3697750000e+04
    1.8449896947e-02    9.3679281250e+04
    1.8459878862e-02    9.3661437500e+04
    1.8469860777e-02    9.3644351562e+04
    1.8479842693e-02    9.3627851562e+04
    1.8489828333e-02    9.3612070312e+04
    1.8499813974e-02    9.3596820312e+04
    1.8509799615e-02    9.3581898438e+04
    1.8519785255e-02    9.3567242188e+04
    1.8529772758e-02    9.3552656250e+04
    1.8539762124e-02    9.3538601562e+04
    1.8549751490e-02    9.3524929688e+04
    1.8559738994e-02    9.3511437500e+04
    1.8569990993e-02    9.3499210938e+04
    1.8579982221e-02    9.3487382812e+04
    1.8589971587e-02    9.3475468750e+04
    1.8599964678e-02    9.3464281250e+04
    1.8609955907e-02    9.3453585938e+04
    1.8619947135e-02    9.3442929688e+04
    1.8629942089e-02    9.3432773438e+04
    1.8639938906e-02    9.3423093750e+04
    1.8649935722e-02    9.3414054688e+04
    1.8659934402e-02    9.3405367188e+04
    1.8669933081e-02    9.3397070312e+04
    1.8679933622e-02    9.3389289062e+04
    1.8689934164e-02    9.3381914062e+04
    1.8699934706e-02    9.3374914062e+04
    1.8709937111e-02    9.3368242188e+04
    1.8719939515e-02    9.3362039062e+04
    1.8729945645e-02    9.3356210938e+04
    1.8739951774e-02    9.3350625000e+04
    1.8749957904e-02    9.3345406250e+04
    1.8759965897e-02    9.3340718750e+04
    1.8769975752e-02    9.3336523438e+04
    1.8779987469e-02    9.3332648438e+04
    1.8789736554e-02    9.3329398438e+04
    1.8799750134e-02    9.3326531250e+04
    1.8809761852e-02    9.3323976562e+04
    1.8819779158e-02    9.3321656250e+04
    1.8829796463e-02    9.3319835938e+04
    1.8839815632e-02    9.3318351562e+04
    1.8849834800e-02    9.3317148438e+04
    1.8859852105e-02    9.3316476562e+04
    1.8869876862e-02    9.3316476562e+04
    1.8879901618e-02    9.3316250000e+04
    1.8889928237e-02    9.3317281250e+04
    1.8899954855e-02    9.3318601562e+04
    1.8909981474e-02    9.3319773438e+04
    1.8919749185e-02    9.3321414062e+04
    1.8929781392e-02    9.3323718750e+04
    1.8939813599e-02    9.3326281250e+04
    1.8949847668e-02    9.3329101562e+04
    1.8959885463e-02    9.3332289062e+04
    1.8969923258e-02    9.3335835938e+04
    1.8979964778e-02    9.3339726562e+04
    1.8989741802e-02    9.3343914062e+04
    1.8999781460e-02    9.3348648438e+04
    1.9009828568e-02    9.3353843750e+04
    1.9019875675e-02    9.3359460938e+04
    1.9029924646e-02    9.3365406250e+04
    1.9039973617e-02    9.3371656250e+04
    1.9049756229e-02    9.3378039062e+04
    1.9059810787e-02    9.3384914062e+04
    1.9069867209e-02    9.3392085938e+04
    1.9079925492e-02    9.3399476562e+04
    1.9089983776e-02    9.3407226562e+04
    1.9099775702e-02    9.3415289062e+04
    1.9109835848e-02    9.3424187500e+04
    1.9119901583e-02    9.3433507812e+04
    1.9129965454e-02    9.3443320312e+04
    1.9139766693e-02    9.3453148438e+04
    1.9149836153e-02    9.3463273438e+04
    1.9159907475e-02    9.3473164062e+04
    1.9169980660e-02    9.3482976562e+04
    1.9179791212e-02    9.3492804688e+04
    1.9189864397e-02    9.3502968750e+04
    1.9199946895e-02    9.3513664062e+04
    1.9209761173e-02    9.3524898438e+04
    1.9219843671e-02    9.3536929688e+04
    1.9229926169e-02    9.3549429688e+04
    1.9239740446e-02    9.3561960938e+04
    1.9249824807e-02    9.3574914062e+04
    1.9259914756e-02    9.3587781250e+04
    1.9269740209e-02    9.3600101562e+04
    1.9279833883e-02    9.3612523438e+04
    1.9289923832e-02    9.3624656250e+04
    1.9299749285e-02    9.3636250000e+04
    1.9309848547e-02    9.3648023438e+04
    1.9319947809e-02    9.3659726562e+04
    1.9329784438e-02    9.3671164062e+04
    1.9339889288e-02    9.3683007812e+04
    1.9349992275e-02    9.3694898438e+04
    1.9359834492e-02    9.3706468750e+04
    1.9369944930e-02    9.3718242188e+04
    1.9379789010e-02    9.3729507812e+04
    1.9389903173e-02    9.3740875000e+04
    1.9399750978e-02    9.3751757812e+04
    1.9409867004e-02    9.3762695312e+04
    1.9419984892e-02    9.3773476562e+04
    1.9429834560e-02    9.3783851562e+04
    1.9439956173e-02    9.3794398438e+04
[...]
    1.1513993144e-01    1.0122291406e+05
    1.1514998227e-01    1.0122291406e+05
    1.1515972763e-01    1.0122291406e+05
    1.1516977847e-01    1.0122290625e+05
    1.1517983675e-01    1.0122289844e+05
    1.1518988758e-01    1.0122289844e+05
    1.1519993842e-01    1.0122289844e+05
    1.1520998925e-01    1.0122288281e+05
    1.1521973461e-01    1.0122287500e+05
    1.1522979289e-01    1.0122286719e+05
    1.1523984373e-01    1.0122285156e+05
    1.1524989456e-01    1.0122285156e+05
    1.1525994539e-01    1.0122285156e+05
    1.1527000368e-01    1.0122284375e+05
    1.1527974904e-01    1.0122283594e+05
    1.1528979987e-01    1.0122283594e+05
    1.1529985070e-01    1.0122283594e+05
    1.1530990154e-01    1.0122282031e+05
    1.1531995982e-01    1.0122282031e+05
    1.1532970518e-01    1.0122281250e+05
    1.1533975601e-01    1.0122280469e+05
    1.1534980685e-01    1.0122278906e+05
    1.1535986513e-01    1.0122278906e+05
    1.1536991596e-01    1.0122278906e+05
    1.1537996680e-01    1.0122278125e+05
    1.1538971215e-01    1.0122277344e+05
    1.1539977044e-01    1.0122277344e+05
    1.1540982127e-01    1.0122277344e+05
    1.1541987211e-01    1.0122275781e+05
    1.1542992294e-01    1.0122275000e+05
    1.1543997377e-01    1.0122274219e+05
    1.1544972658e-01    1.0122274219e+05
    1.1545977741e-01    1.0122272656e+05
    1.1546982825e-01    1.0122272656e+05
    1.1547987908e-01    1.0122272656e+05
    1.1548993737e-01    1.0122271875e+05
    1.1549998820e-01    1.0122271094e+05
    1.1550973356e-01    1.0122271094e+05
    1.1551978439e-01    1.0122271094e+05
    1.1552983522e-01    1.0122269531e+05
    1.1553989351e-01    1.0122268750e+05
    1.1554994434e-01    1.0122267969e+05
    1.1555999517e-01    1.0122267969e+05
    1.1556974053e-01    1.0122266406e+05
    1.1557979882e-01    1.0122266406e+05
    1.1558984965e-01    1.0122265625e+05
    1.1559990048e-01    1.0122265625e+05
    1.1560995132e-01    1.0122264844e+05
    1.1561970413e-01    1.0122264844e+05
    1.1562975496e-01    1.0122263281e+05
    1.1563980579e-01    1.0122263281e+05
    1.1564985663e-01    1.0122262500e+05
    1.1565990746e-01    1.0122261719e+05
    1.1566996574e-01    1.0122260156e+05
    1.1567971110e-01    1.0122260156e+05
    1.1568976194e-01    1.0122260156e+05
    1.1569981277e-01    1.0122259375e+05
    1.1570987105e-01    1.0122259375e+05
    1.1571992189e-01    1.0122258594e+05
    1.1572997272e-01    1.0122258594e+05
    1.1573971808e-01    1.0122257031e+05
    1.1574976891e-01    1.0122257031e+05
    1.1575982720e-01    1.0122256250e+05
    1.1576987803e-01    1.0122255469e+05
    1.1577992886e-01    1.0122253906e+05
    1.1578997970e-01    1.0122253906e+05
    1.1579973251e-01    1.0122253906e+05
    1.1580978334e-01    1.0122253125e+05
    1.1581983417e-01    1.0122252344e+05
    1.1582988501e-01    1.0122252344e+05
    1.1583993584e-01    1.0122252344e+05
    1.1584999412e-01    1.0122250781e+05
    1.1585973948e-01    1.0122250000e+05
    1.1586979032e-01    1.0122250000e+05
    1.1587984115e-01    1.0122249219e+05
    1.1588989943e-01    1.0122247656e+05
    1.1589995027e-01    1.0122247656e+05
    1.1590969563e-01    1.0122247656e+05
    1.1591974646e-01    1.0122246875e+05
    1.1592980474e-01    1.0122246094e+05
    1.1593985558e-01    1.0122246094e+05
    1.1594990641e-01    1.0122246094e+05
    1.1595995724e-01    1.0122244531e+05
    1.1596970260e-01    1.0122244531e+05
    1.1597976089e-01    1.0122243750e+05
    1.1598981172e-01    1.0122242969e+05
    1.1599986255e-01    1.0122241406e+05
    1.1600991338e-01    1.0122241406e+05
    1.1601997167e-01    1.0122241406e+05
    1.1602971703e-01    1.0122240625e+05
    1.1603976786e-01    1.0122239844e+05
    1.1604981869e-01    1.0122239844e+05
    1.1605986953e-01    1.0122239844e+05
    1.1606992781e-01    1.0122238281e+05
    1.1607997864e-01    1.0122237500e+05
    1.1608972400e-01    1.0122236719e+05
    1.1609977484e-01    1.0122235156e+05
    1.1610983312e-01    1.0122235156e+05
    1.1611988395e-01    1.0122235156e+05
    1.1612993479e-01    1.0122234375e+05
    1.1613998562e-01    1.0122234375e+05
    1.1614973843e-01    1.0122233594e+05
    1.1615978926e-01    1.0122233594e+05
    1.1616984010e-01    1.0122233594e+05
    1.1617989093e-01    1.0122232031e+05
    1.1618994176e-01    1.0122231250e+05
    1.1620000005e-01    1.0122231250e+05
    1.1620974541e-01    1.0122230469e+05
    1.1621979624e-01    1.0122228906e+05
    1.1622984707e-01    1.0122228906e+05
    1.1623990536e-01    1.0122228906e+05
    1.1624995619e-01    1.0122228125e+05
    1.1625970155e-01    1.0122227344e+05
    1.1626975238e-01    1.0122227344e+05
    1.1627981067e-01    1.0122225781e+05
    1.1628986150e-01    1.0122225000e+05
    1.1629991233e-01    1.0122225000e+05
    1.1630996317e-01    1.0122224219e+05
    1.1631970853e-01    1.0122222656e+05
    1.1632976681e-01    1.0122222656e+05
    1.1633981764e-01    1.0122222656e+05
    1.1634986848e-01    1.0122221875e+05
    1.1635991931e-01    1.0122221875e+05
    1.1636997759e-01    1.0122221094e+05
    1.1637972295e-01    1.0122221094e+05
    1.1638977379e-01    1.0122221094e+05
    1.1639982462e-01    1.0122219531e+05
    1.1640988290e-01    1.0122218750e+05
    1.1641993374e-01    1.0122217969e+05
    1.1642998457e-01    1.0122216406e+05
    1.1643972993e-01    1.0122216406e+05
    1.1644978076e-01    1.0122216406e+05
    1.1645983905e-01    1.0122215625e+05
    1.1646988988e-01    1.0122214844e+05
    1.1647994071e-01    1.0122214844e+05
    1.1648999155e-01    1.0122214844e+05
    1.1649974436e-01    1.0122213281e+05
    1.1650979519e-01    1.0122213281e+05
    1.1651984602e-01    1.0122212500e+05
    1.1652989686e-01    1.0122211719e+05
    1.1653994769e-01    1.0122211719e+05
    1.1654970050e-01    1.0122210156e+05
    1.1655975133e-01    1.0122210156e+05
    1.1656980217e-01    1.0122210156e+05
    1.1657985300e-01    1.0122209375e+05
    1.1658991128e-01    1.0122208594e+05
    1.1659996212e-01    1.0122208594e+05
    1.1660970747e-01    1.0122208594e+05
    1.1661975831e-01    1.0122207031e+05
    1.1662981659e-01    1.0122206250e+05
    1.1663986742e-01    1.0122206250e+05
    1.1664991826e-01    1.0122205469e+05
    1.1665996909e-01    1.0122203906e+05
    1.1666972190e-01    1.0122203906e+05
    1.1667977273e-01    1.0122203125e+05
    1.1668982357e-01    1.0122203125e+05
    1.1669987440e-01    1.0122202344e+05
    1.1670992523e-01    1.0122202344e+05
    1.1671998352e-01    1.0122202344e+05
    1.1672972888e-01    1.0122200781e+05
    1.1673977971e-01    1.0122200000e+05
    1.1674983054e-01    1.0122200000e+05
    1.1675988883e-01    1.0122199219e+05
    1.1676993966e-01    1.0122197656e+05
    1.1677999049e-01    1.0122197656e+05
    1.1678973585e-01    1.0122197656e+05
    1.1679979414e-01    1.0122196875e+05
    1.1680984497e-01    1.0122196875e+05
    1.1681989580e-01    1.0122196094e+05
    1.1682994664e-01    1.0122196094e+05
    1.1683969945e-01    1.0122196094e+05
    1.1684975028e-01    1.0122194531e+05
    1.1685980111e-01    1.0122193750e+05
    1.1686985195e-01    1.0122193750e+05
    1.1687990278e-01    1.0122192969e+05
    1.1688996106e-01    1.0122192969e+05
    1.1689970642e-01    1.0122191406e+05
    1.1690975726e-01    1.0122191406e+05
    1.1691980809e-01    1.0122191406e+05
    1.1692986637e-01    1.0122190625e+05
    1.1693991721e-01    1.0122189844e+05
    1.1694996804e-01    1.0122189844e+05
    1.1695971340e-01    1.0122189844e+05
    1.1696977168e-01    1.0122188281e+05
    1.1697982252e-01    1.0122187500e+05
    1.1698987335e-01    1.0122187500e+05
    1.1699992418e-01    1.0122186719e+05
    1.1700997502e-01    1.0122185156e+05
    1.1701972783e-01    1.0122185156e+05
    1.1702977866e-01    1.0122185156e+05
    1.1703982949e-01    1.0122184375e+05
    1.1704988033e-01    1.0122183594e+05
    1.1705993861e-01    1.0122183594e+05
    1.1706998944e-01    1.0122183594e+05
    1.1707973480e-01    1.0122182031e+05
    1.1708978564e-01    1.0122181250e+05
    1.1709983647e-01    1.0122180469e+05
    1.1710989475e-01    1.0122178906e+05
    1.1711994559e-01    1.0122178906e+05
    1.1712999642e-01    1.0122178906e+05
    1.1713974178e-01    1.0122178125e+05
    1.1714980006e-01    1.0122177344e+05
    1.1715985090e-01    1.0122177344e+05
    1.1716990173e-01    1.0122177344e+05
    1.1717995256e-01    1.0122175781e+05
    1.1718970537e-01    1.0122175781e+05
    1.1719975621e-01    1.0122175000e+05
    1.1720980704e-01    1.0122174219e+05
    1.1721985787e-01    1.0122172656e+05
    1.1722990870e-01    1.0122172656e+05
    1.1723996699e-01    1.0122171875e+05
    1.1724971235e-01    1.0122171094e+05
    1.1725976318e-01    1.0122171094e+05
    1.1726981401e-01    1.0122168750e+05
    1.1727987230e-01    1.0122167969e+05
    1.1728992313e-01    1.0122166406e+05
    1.1729997396e-01    1.0122166406e+05
    1.1730971932e-01    1.0122166406e+05
    1.1731977761e-01    1.0122166406e+05
    1.1732982844e-01    1.0122166406e+05
    1.1733987927e-01    1.0122166406e+05
    1.1734993011e-01    1.0122165625e+05
    1.1735998094e-01    1.0122165625e+05
    1.1736973375e-01    1.0122164844e+05
    1.1737978458e-01    1.0122164844e+05
    1.1738983542e-01    1.0122164844e+05
    1.1739988625e-01    1.0122163281e+05
    1.1740994453e-01    1.0122162500e+05
    1.1741999537e-01    1.0122161719e+05
    1.1742974073e-01    1.0122160156e+05
    1.1743979156e-01    1.0122160156e+05
    1.1744984984e-01    1.0122160156e+05
    1.1745990068e-01    1.0122160156e+05
    1.1746995151e-01    1.0122160156e+05
    1.1747969687e-01    1.0122160156e+05
    1.1748975515e-01    1.0122160156e+05
    1.1749980599e-01    1.0122160156e+05
    1.1750985682e-01    1.0122160156e+05
    1.1751990765e-01    1.0122160156e+05
    1.1752995849e-01    1.0122160156e+05
    1.1753971130e-01    1.0122159375e+05
    1.1754976213e-01    1.0122158594e+05
    1.1755981296e-01    1.0122158594e+05
    1.1756986380e-01    1.0122157031e+05
    1.1757992208e-01    1.0122156250e+05
    1.1758997291e-01    1.0122155469e+05
    1.1759971827e-01    1.0122153906e+05
    1.1760976911e-01    1.0122153125e+05
    1.1761982739e-01    1.0122152344e+05
    1.1762987822e-01    1.0122152344e+05
    1.1763992906e-01    1.0122150781e+05
    1.1764997989e-01    1.0122150781e+05
    1.1765973270e-01    1.0122150000e+05
    1.1766978353e-01    1.0122149219e+05
    1.1767983437e-01    1.0122149219e+05
    1.1768988520e-01    1.0122147656e+05
    1.1769993603e-01    1.0122147656e+05
    1.1770999432e-01    1.0122146875e+05
    1.1771973968e-01    1.0122146094e+05
    1.1772979051e-01    1.0122144531e+05
    1.1773984134e-01    1.0122143750e+05
    1.1774989963e-01    1.0122142969e+05
    1.1775995046e-01    1.0122141406e+05
    1.1776969582e-01    1.0122141406e+05
    1.1777974665e-01    1.0122141406e+05
    1.1778979748e-01    1.0122141406e+05
    1.1779985577e-01    1.0122140625e+05
    1.1780990660e-01    1.0122140625e+05
    1.1781995744e-01    1.0122139844e+05
    1.1782970279e-01    1.0122139844e+05
    1.1783976108e-01    1.0122139844e+05
    1.1784981191e-01    1.0122139844e+05
    1.1785986274e-01    1.0122139844e+05
    1.1786991358e-01    1.0122139844e+05
    1.1787997186e-01    1.0122139844e+05
    1.1788971722e-01    1.0122139844e+05
    1.1789976805e-01    1.0122139844e+05
    1.1790981889e-01    1.0122138281e+05
    1.1791986972e-01    1.0122137500e+05
    1.1792992800e-01    1.0122136719e+05
    1.1793997884e-01    1.0122135156e+05
    1.1794972420e-01    1.0122135156e+05
    1.1795977503e-01    1.0122133594e+05
    1.1796983331e-01    1.0122133594e+05
    1.1797988415e-01    1.0122131250e+05
    1.1798993498e-01    1.0122130469e+05
    1.1799998581e-01    1.0122128906e+05
    1.1800973862e-01    1.0122128906e+05
    1.1801978946e-01    1.0122128906e+05
    1.1802984029e-01    1.0122128125e+05
    1.1803989112e-01    1.0122128125e+05
    1.1804994196e-01    1.0122128125e+05
    1.1806000024e-01    1.0122127344e+05
    1.1806974560e-01    1.0122127344e+05
    1.1807979643e-01    1.0122127344e+05
    1.1808984727e-01    1.0122127344e+05
    1.1809990555e-01    1.0122127344e+05
    1.1810995638e-01    1.0122127344e+05
    1.1811970174e-01    1.0122125781e+05
    1.1812975258e-01    1.0122125000e+05
    1.1813981086e-01    1.0122124219e+05
    1.1814986169e-01    1.0122122656e+05
    1.1815991253e-01    1.0122122656e+05
    1.1816996336e-01    1.0122121875e+05
    1.1817971617e-01    1.0122121094e+05
    1.1818976700e-01    1.0122121094e+05
    1.1819981784e-01    1.0122121094e+05
    1.1820986867e-01    1.0122121094e+05
    1.1821991950e-01    1.0122121094e+05
    1.1822997779e-01    1.0122121094e+05
    1.1823972315e-01    1.0122119531e+05
    1.1824977398e-01    1.0122119531e+05
    1.1825982481e-01    1.0122118750e+05
    1.1826988310e-01    1.0122117969e+05
    1.1827993393e-01    1.0122116406e+05
    1.1828998476e-01    1.0122116406e+05
    1.1829973012e-01    1.0122115625e+05
    1.1830978841e-01    1.0122114844e+05
    1.1831983924e-01    1.0122113281e+05
    1.1832989007e-01    1.0122112500e+05
    1.1833994091e-01    1.0122112500e+05
    1.1834999174e-01    1.0122111719e+05
    1.1835974455e-01    1.0122111719e+05
    1.1836979538e-01    1.0122111719e+05
    1.1837984622e-01    1.0122110156e+05
    1.1838989705e-01    1.0122110156e+05
    1.1839995533e-01    1.0122110156e+05
    1.1840970069e-01    1.0122110156e+05
    1.1841975152e-01    1.0122109375e+05
    1.1842980236e-01    1.0122108594e+05
    1.1843986064e-01    1.0122108594e+05
    1.1844991148e-01    1.0122107031e+05
    1.1845996231e-01    1.0122106250e+05
    1.1846970767e-01    1.0122105469e+05
    1.1847976595e-01    1.0122105469e+05
    1.1848981678e-01    1.0122103906e+05
    1.1849986762e-01    1.0122103906e+05
    1.1850991845e-01    1.0122103906e+05
    1.1851996928e-01    1.0122103906e+05
    1.1852972209e-01    1.0122103125e+05
    1.1853977293e-01    1.0122103125e+05
    1.1854982376e-01    1.0122102344e+05
    1.1855987459e-01    1.0122102344e+05
    1.1856993288e-01    1.0122102344e+05
    1.1857998371e-01    1.0122100781e+05
    1.1858972907e-01    1.0122100000e+05
    1.1859977990e-01    1.0122100000e+05
    1.1860983819e-01    1.0122099219e+05
    1.1861988902e-01    1.0122097656e+05
    1.1862993985e-01    1.0122097656e+05
    1.1863999069e-01    1.0122097656e+05
    1.1864973605e-01    1.0122096875e+05
    1.1865979433e-01    1.0122096875e+05
    1.1866984516e-01    1.0122096094e+05
    1.1867989600e-01    1.0122096094e+05
    1.1868994683e-01    1.0122096094e+05
    1.1869969964e-01    1.0122094531e+05
    1.1870975047e-01    1.0122093750e+05
    1.1871980131e-01    1.0122093750e+05
    1.1872985214e-01    1.0122092969e+05
    1.1873991042e-01    1.0122091406e+05
    1.1874996126e-01    1.0122091406e+05
    1.1875970662e-01    1.0122091406e+05
    1.1876975745e-01    1.0122090625e+05
    1.1877980828e-01    1.0122089844e+05
    1.1878986657e-01    1.0122089844e+05
    1.1879991740e-01    1.0122089844e+05
    1.1880996823e-01    1.0122088281e+05
    1.1881971359e-01    1.0122088281e+05
    1.1882977188e-01    1.0122087500e+05
    1.1883982271e-01    1.0122086719e+05
    1.1884987354e-01    1.0122086719e+05
    1.1885992438e-01    1.0122085156e+05
    1.1886997521e-01    1.0122085156e+05
    1.1887972802e-01    1.0122085156e+05
    1.1888977885e-01    1.0122084375e+05
    1.1889982969e-01    1.0122084375e+05
    1.1890988052e-01    1.0122083594e+05
    1.1891993880e-01    1.0122083594e+05
    1.1892998964e-01    1.0122083594e+05
    1.1893973500e-01    1.0122082031e+05
    1.1894978583e-01    1.0122081250e+05
    1.1895984411e-01    1.0122081250e+05
    1.1896989495e-01    1.0122080469e+05
    1.1897994578e-01    1.0122078906e+05
    1.1898999661e-01    1.0122078906e+05
    1.1899974942e-01    1.0122078906e+05
    1.1900980026e-01    1.0122078125e+05
    1.1901985109e-01    1.0122077344e+05
    1.1902990192e-01    1.0122077344e+05
    1.1903995275e-01    1.0122077344e+05
    1.1904970556e-01    1.0122075781e+05
    1.1905975640e-01    1.0122075781e+05
    1.1906980723e-01    1.0122075000e+05
    1.1907985806e-01    1.0122074219e+05
    1.1908991635e-01    1.0122074219e+05
    1.1909996718e-01    1.0122072656e+05
    1.1910971254e-01    1.0122072656e+05
    1.1911976337e-01    1.0122072656e+05
    1.1912982166e-01    1.0122071875e+05
    1.1913987249e-01    1.0122071094e+05
    1.1914992332e-01    1.0122071094e+05
    1.1915997416e-01    1.0122071094e+05
    1.1916972697e-01    1.0122071094e+05
    1.1917977780e-01    1.0122069531e+05
    1.1918982863e-01    1.0122068750e+05
    1.1919987947e-01    1.0122068750e+05
    1.1920993030e-01    1.0122067969e+05
    1.1921998858e-01    1.0122066406e+05
    1.1922973394e-01    1.0122066406e+05
    1.1923978478e-01    1.0122066406e+05
    1.1924983561e-01    1.0122065625e+05
    1.1925989389e-01    1.0122065625e+05
    1.1926994473e-01    1.0122064844e+05
    1.1927999556e-01    1.0122064844e+05
    1.1928974092e-01    1.0122064844e+05
    1.1929979920e-01    1.0122063281e+05
    1.1930985004e-01    1.0122062500e+05
    1.1931990087e-01    1.0122062500e+05
    1.1932995170e-01    1.0122061719e+05
    1.1933970451e-01    1.0122060156e+05
    1.1934975535e-01    1.0122060156e+05
    1.1935980618e-01    1.0122060156e+05
    1.1936985701e-01    1.0122059375e+05
    1.1937990785e-01    1.0122059375e+05
    1.1938996613e-01    1.0122058594e+05
    1.1939971149e-01    1.0122058594e+05
    1.1940976232e-01    1.0122058594e+05
    1.1941981316e-01    1.0122057031e+05
    1.1942987144e-01    1.0122056250e+05
    1.1943992227e-01    1.0122056250e+05
    1.1944997311e-01    1.0122055469e+05
    1.1945971847e-01    1.0122055469e+05
    1.1946977675e-01    1.0122053906e+05
    1.1947982758e-01    1.0122053906e+05
    1.1948987842e-01    1.0122053906e+05
    1.1949992925e-01    1.0122053125e+05
    1.1950998008e-01    1.0122052344e+05
    1.1951973289e-01    1.0122052344e+05
    1.1952978373e-01    1.0122052344e+05
    1.1953983456e-01    1.0122050781e+05
    1.1954988539e-01    1.0122050781e+05
    1.1955994368e-01    1.0122050000e+05
    1.1956999451e-01    1.0122049219e+05
    1.1957973987e-01    1.0122049219e+05
    1.1958979070e-01    1.0122047656e+05
    1.1959984899e-01    1.0122047656e+05
    1.1960989982e-01    1.0122047656e+05
    1.1961995065e-01    1.0122046875e+05
    1.1962969601e-01    1.0122046094e+05
    1.1963975430e-01    1.0122046094e+05
    1.1964980513e-01    1.0122046094e+05
    1.1965985596e-01    1.0122046094e+05
    1.1966990680e-01    1.0122044531e+05
    1.1967995763e-01    1.0122043750e+05
    1.1968971044e-01    1.0122043750e+05
    1.1969976127e-01    1.0122042969e+05
    1.1970981210e-01    1.0122041406e+05
    1.1971986294e-01    1.0122041406e+05
    1.1972992122e-01    1.0122041406e+05
    1.1973997205e-01    1.0122040625e+05
    1.1974971741e-01    1.0122040625e+05
    1.1975976825e-01    1.0122039844e+05
    1.1976982653e-01    1.0122039844e+05
    1.1977987736e-01    1.0122039844e+05
    1.1978992820e-01    1.0122038281e+05
    1.1979997903e-01    1.0122037500e+05
    1.1980973184e-01    1.0122037500e+05
    1.1981978267e-01    1.0122036719e+05
    1.1982983351e-01    1.0122036719e+05
    1.1983988434e-01    1.0122035156e+05
    1.1984993517e-01    1.0122035156e+05
    1.1985999346e-01    1.0122035156e+05
    1.1986973882e-01    1.0122034375e+05
    1.1987978965e-01    1.0122033594e+05
    1.1988984048e-01    1.0122033594e+05
    1.1989989877e-01    1.0122033594e+05
    1.1990994960e-01    1.0122033594e+05
    1.1991969496e-01    1.0122032031e+05
    1.1992974579e-01    1.0122031250e+05
    1.1993980408e-01    1.0122031250e+05
    1.1994985491e-01    1.0122030469e+05
    1.1995990574e-01    1.0122028906e+05
    1.1996995658e-01    1.0122028906e+05
    1.1997970939e-01    1.0122028906e+05
    1.1998976022e-01    1.0122028125e+05
    1.1999981105e-01    1.0122028125e+05
endcurve
