Curveplot
LS-DYNA keyword deck by LS-PrePost                          
Time
Pressure
Defined Connection
Pressure @ 5 #pts=12001
* Minval=     6.7495812500e+04 at time=         0.0068898746
* Maxval=     6.0199006250e+05 at time=         0.0019997556
    0.0000000000e+00    1.0120000000e+05
    9.9485323517e-06    1.0120000000e+05
    1.9960500140e-05    1.0120000000e+05
    2.9977310987e-05    1.0120000000e+05
    3.9991049562e-05    1.0120000000e+05
    4.9979083997e-05    1.0120000000e+05
    5.9978592617e-05    1.0120000000e+05
    6.9999026891e-05    1.0120000000e+05
    7.9993864347e-05    1.0120000000e+05
    8.9965076768e-05    1.0120000000e+05
    9.9963741377e-05    1.0120000000e+05
    1.0997769277e-04    1.0120000000e+05
    1.1999459821e-04    1.0120000000e+05
    1.2992575648e-04    1.0120000000e+05
    1.3998901704e-04    1.0120000000e+05
    1.4994251251e-04    1.0120000000e+05
    1.5993152920e-04    1.0120000000e+05
    1.6994863108e-04    1.0120000000e+05
    1.7998580006e-04    1.0120000000e+05
    1.8994837592e-04    1.0120000000e+05
    1.9999846700e-04    1.0120000000e+05
    2.0995445084e-04    1.0120000000e+05
    2.1998329612e-04    1.0120000000e+05
    2.2998865461e-04    1.0120000000e+05
    2.3996150412e-04    1.0120000000e+05
    2.4998647859e-04    1.0120000000e+05
    2.5995617034e-04    1.0120000000e+05
    2.6994780637e-04    1.0120000000e+05
    2.7995699202e-04    1.0120000000e+05
    2.8998302878e-04    1.0120000000e+05
    2.9992367490e-04    1.0120000000e+05
    3.0997564318e-04    1.0120000000e+05
    3.1993616722e-04    1.0120000000e+05
    3.2990347245e-04    1.0120000000e+05
    3.3998052822e-04    1.0120000000e+05
    3.4995740862e-04    1.0120000000e+05
    3.5993559868e-04    1.0120000000e+05
    3.6991355591e-04    1.0120000000e+05
    3.7999832421e-04    1.0120000000e+05
    3.8997054799e-04    1.0120000000e+05
    3.9993927930e-04    1.0120000000e+05
    4.0990099660e-04    1.0120000000e+05
    4.1996751679e-04    1.0120000000e+05
    4.2990705697e-04    1.0120000000e+05
    4.3995326268e-04    1.0120000000e+05
    4.4998741942e-04    1.0120000000e+05
    4.5988886268e-04    1.0120000000e+05
    4.6989126713e-04    1.0120000000e+05
    4.7999437083e-04    1.0120000000e+05
    4.8995984253e-04    1.0120000000e+05
    4.9990339903e-04    1.0120000000e+05
    5.0994759658e-04    1.0120000000e+05
    5.1996810362e-04    1.0120000000e+05
    5.2996305749e-04    1.0120000000e+05
    5.3992850007e-04    1.0120000000e+05
    5.4999499116e-04    1.0120000000e+05
    5.5990170222e-04    1.0120000000e+05
    5.6990660960e-04    1.0120000000e+05
    5.7987769833e-04    1.0120000000e+05
    5.8994774008e-04    1.0120000000e+05
    5.9998198412e-04    1.0120000000e+05
    6.0997542460e-04    1.0120000000e+05
    6.1993120471e-04    1.0120000000e+05
    6.2998442445e-04    1.0120000000e+05
    6.3999491977e-04    1.0120000000e+05
    6.4996030414e-04    1.0120000000e+05
    6.5987795824e-04    1.0120000000e+05
    6.6989107290e-04    1.0120000000e+05
    6.7999871681e-04    1.0120000000e+05
    6.8990595173e-04    1.0120000000e+05
    6.9991173223e-04    1.0120000000e+05
    7.0986186620e-04    1.0120000000e+05
    7.1990652941e-04    1.0120000000e+05
    7.2989281034e-04    1.0120000000e+05
    7.3997344589e-04    1.0120000000e+05
    7.4999284698e-04    1.0120000000e+05
    7.5994787039e-04    1.0120000000e+05
    7.6999585144e-04    1.0120000000e+05
    7.7997526387e-04    1.0120000000e+05
    7.8988203313e-04    1.0120000000e+05
    7.9988274956e-04    1.0120000000e+05
    8.0997572513e-04    1.0120000000e+05
    8.1999431131e-04    1.0120000000e+05
    8.2993536489e-04    1.0120000000e+05
    8.3996640751e-04    1.0120000000e+05
    8.4991636686e-04    1.0120000000e+05
    8.5995573318e-04    1.0120000000e+05
    8.6991058197e-04    1.0120000000e+05
    8.7995413924e-04    1.0120000000e+05
    8.8990927907e-04    1.0120000000e+05
    8.9995254530e-04    1.0120000000e+05
    9.0990337776e-04    1.0120000000e+05
    9.1993727256e-04    1.0120000000e+05
    9.2987628886e-04    1.0120000000e+05
    9.3990418827e-04    1.0120000000e+05
    9.4983150484e-04    1.0120000000e+05
    9.5984438667e-04    1.0120000000e+05
    9.6994399792e-04    1.0120000000e+05
    9.7993854433e-04    1.0120000000e+05
    9.8982430063e-04    1.0120000000e+05
    9.9999038503e-04    1.0120000000e+05
    1.0098489001e-03    1.0120000000e+05
    1.0199899552e-03    1.0120000000e+05
    1.0298159905e-03    1.0120000000e+05
    1.0399272433e-03    1.0120000000e+05
    1.0499203345e-03    1.0120000000e+05
    1.0599979432e-03    1.0120000000e+05
    1.0699529666e-03    1.0120000000e+05
    1.0799916927e-03    1.0120000000e+05
    1.0899036424e-03    1.0120000000e+05
    1.0998977814e-03    1.0120000000e+05
    1.1099762050e-03    1.0120000000e+05
    1.1199221481e-03    1.0120000000e+05
    1.1299508624e-03    1.0120000000e+05
    1.1398431379e-03    1.0120000000e+05
    1.1498170206e-03    1.0120000000e+05
    1.1598740239e-03    1.0120000000e+05
    1.1697892332e-03    1.0120000000e+05
    1.1797854677e-03    1.0120000000e+05
    1.1898652883e-03    1.0120000000e+05
    1.1997973779e-03    1.0120000000e+05
    1.2098123552e-03    1.0120000000e+05
    1.2199087068e-03    1.0120000000e+05
    1.2298522051e-03    1.0120000000e+05
    1.2398781255e-03    1.0120000000e+05
    1.2499872828e-03    1.0120000000e+05
    1.2599371839e-03    1.0120000000e+05
    1.2699692743e-03    1.0120000000e+05
    1.2798391981e-03    1.0120000000e+05
    1.2897880515e-03    1.0120000000e+05
    1.2998200255e-03    1.0120000000e+05
    1.3099344214e-03    1.0120000000e+05
    1.3198787346e-03    1.0120000000e+05
    1.3299048878e-03    1.0120000000e+05
    1.3397539733e-03    1.0120000000e+05
    1.3499461347e-03    1.0120000000e+05
    1.3599598315e-03    1.0120000000e+05
    1.3697900577e-03    1.0120000000e+05
    1.3799696462e-03    1.0120000000e+05
    1.3899647165e-03    1.0120000000e+05
    1.3997689821e-03    1.0120000000e+05
    1.4099297114e-03    1.0120000000e+05
    1.4198980061e-03    1.0120000000e+05
    1.4299497707e-03    1.0120000000e+05
    1.4398033964e-03    1.0120000000e+05
    1.4497382799e-03    1.0120000000e+05
    1.4597559348e-03    1.0120000000e+05
    1.4698578743e-03    1.0120000000e+05
    1.4797534095e-03    1.0120000000e+05
    1.4897314832e-03    1.0120000000e+05
    1.4997938415e-03    1.0120000000e+05
    1.5099415323e-03    1.0120000000e+05
    1.5198744368e-03    1.0120000000e+05
    1.5298908111e-03    1.0120000000e+05
    1.5399928670e-03    1.0120000000e+05
    1.5498716384e-03    1.0120000000e+05
    1.5598335303e-03    1.0120000000e+05
    1.5698805219e-03    1.0120000000e+05
    1.5796960797e-03    1.0120000000e+05
    1.5899076825e-03    1.0120000000e+05
    1.5998932067e-03    1.0120000000e+05
    1.6099647619e-03    1.0120000000e+05
    1.6197951045e-03    1.0120000000e+05
    1.6297094990e-03    1.0120000000e+05
    1.6397093423e-03    1.0120000000e+05
    1.6497966135e-03    1.0120000000e+05
    1.6599729424e-03    1.0120000000e+05
    1.6698963009e-03    1.0120000000e+05
    1.6799067380e-03    1.0120000000e+05
    1.6896559391e-03    1.0120000000e+05
    1.6998420469e-03    1.0120000000e+05
    1.7097645905e-03    1.0120000000e+05
    1.7197747948e-03    1.0120000000e+05
    1.7298747553e-03    1.0120000000e+05
    1.7397010233e-03    1.0120000000e+05
    1.7499830574e-03    1.0120000000e+05
    1.7599833664e-03    1.0120000000e+05
    1.7697041621e-03    1.0120000000e+05
    1.7798901536e-03    1.0120000000e+05
    1.7897884827e-03    1.0120000000e+05
    1.7997771502e-03    1.0120000000e+05
    1.8098577857e-03    1.0120000000e+05
    1.8196396995e-03    1.0120000000e+05
    1.8299072981e-03    1.0120000000e+05
    1.8398729153e-03    1.0120000000e+05
    1.8499318976e-03    1.0120000000e+05
    1.8596783048e-03    1.0120000000e+05
    1.8699269276e-03    1.0120000000e+05
    1.8798594829e-03    1.0120000000e+05
    1.8898826092e-03    1.0120000000e+05
    1.8995786086e-03    1.0120000000e+05
    1.9097975455e-03    1.0120000000e+05
    1.9196857465e-03    1.0120000000e+05
    1.9296547398e-03    1.0120000000e+05
    1.9396852003e-03    1.0120000000e+05
    1.9497646717e-03    1.0120000000e+05
    1.9598889630e-03    1.0120000000e+05
    1.9696026575e-03    1.0120000000e+05
    1.9797987770e-03    1.0120000000e+05
    1.9899879117e-03    1.0173261719e+05
    1.9997556228e-03    6.0199006250e+05
    2.0099948160e-03    5.8972556250e+05
    2.0197571721e-03    5.7818137500e+05
    2.0299947355e-03    5.6644806250e+05
    2.0397615153e-03    5.5558656250e+05
    2.0499657840e-03    5.4456031250e+05
    2.0597307011e-03    5.3432268750e+05
    2.0699382294e-03    5.2393850000e+05
    2.0797136240e-03    5.1428909375e+05
    2.0898992661e-03    5.0451175000e+05
    2.0996511448e-03    4.9542287500e+05
    2.1098698489e-03    4.8618709375e+05
    2.1196086891e-03    4.7762662500e+05
    2.1298027132e-03    4.6888621875e+05
    2.1399415564e-03    4.6046265625e+05
    2.1496026311e-03    4.5264653125e+05
    2.1597449668e-03    4.4467425000e+05
    2.1699357312e-03    4.3689065625e+05
    2.1797060035e-03    4.2960684375e+05
    2.1899610292e-03    4.2218375000e+05
    2.1997962613e-03    4.1526725000e+05
    2.2096212488e-03    4.0852000000e+05
    2.2199235391e-03    4.0164450000e+05
    2.2297953255e-03    3.9522153125e+05
    2.2396764252e-03    3.8896225000e+05
    2.2495926823e-03    3.8284487500e+05
    2.2599888034e-03    3.7661046875e+05
    2.2699262481e-03    3.7080009375e+05
    2.2798664868e-03    3.6513412500e+05
    2.2897904273e-03    3.5961490625e+05
    2.2997078486e-03    3.5424265625e+05
    2.3096196819e-03    3.4901509375e+05
    2.3199548014e-03    3.4369912500e+05
    2.3298163433e-03    3.3875240625e+05
    2.3396331817e-03    3.3394187500e+05
    2.3498460650e-03    3.2905925000e+05
    2.3599993438e-03    3.2432559375e+05
    2.3696424905e-03    3.1993334375e+05
    2.3796453606e-03    3.1548059375e+05
    2.3899993394e-03    3.1098000000e+05
    2.3998424876e-03    3.0680015625e+05
    2.4096090347e-03    3.0274612500e+05
    2.4197204039e-03    2.9864684375e+05
    2.4297509808e-03    2.9467778125e+05
    2.4397021625e-03    2.9083300000e+05
    2.4499839637e-03    2.8695609375e+05
    2.4597763550e-03    2.8335143750e+05
    2.4698961060e-03    2.7971362500e+05
    2.4799343664e-03    2.7619028125e+05
    2.4898927659e-03    2.7277578125e+05
    2.4997720029e-03    2.6946240625e+05
    2.5099636987e-03    2.6611821875e+05
    2.5196850765e-03    2.6299471875e+05
    2.5297144894e-03    2.5983664062e+05
    2.5396621786e-03    2.5676654688e+05
    2.5499083567e-03    2.5366793750e+05
    2.5596939959e-03    2.5076867188e+05
    2.5697732344e-03    2.4784351562e+05
    2.5797691196e-03    2.4500539062e+05
    2.5896823499e-03    2.4225367188e+05
    2.5998766068e-03    2.3948792188e+05
    2.6099837851e-03    2.3680837500e+05
    2.6196481194e-03    2.3430307812e+05
    2.6299408637e-03    2.3169267188e+05
    2.6397923939e-03    2.2924717188e+05
    2.6499081869e-03    2.2678618750e+05
    2.6599350385e-03    2.2439357812e+05
    2.6698741131e-03    2.2206545312e+05
    2.6797258761e-03    2.1979995312e+05
    2.6898256037e-03    2.1752212500e+05
    2.6998335961e-03    2.1530920312e+05
    2.7097500861e-03    2.1315993750e+05
    2.7199022006e-03    2.1100332812e+05
    2.7299583890e-03    2.0890770312e+05
    2.7399188839e-03    2.0687014062e+05
    2.7497843839e-03    2.0488854688e+05
    2.7598682791e-03    2.0289923438e+05
    2.7698522899e-03    2.0096679688e+05
    2.7797364164e-03    1.9909025000e+05
    2.7898254339e-03    1.9721198438e+05
    2.7998087462e-03    1.9538918750e+05
    2.8099850751e-03    1.9356598438e+05
    2.8197555803e-03    1.9184685938e+05
    2.8297123499e-03    1.9012520312e+05
    2.8398463037e-03    1.8840425000e+05
    2.8498626780e-03    1.8673382812e+05
    2.8597619385e-03    1.8511314062e+05
    2.8698211536e-03    1.8349656250e+05
    2.8797562700e-03    1.8192876562e+05
    2.8898369055e-03    1.8036592188e+05
    2.8997855261e-03    1.7884920312e+05
    2.9098647647e-03    1.7733750000e+05
    2.9198033735e-03    1.7587076562e+05
    2.9298565350e-03    1.7441162500e+05
    2.9397595208e-03    1.7299945312e+05
    2.9497593641e-03    1.7160018750e+05
    2.9598427936e-03    1.7021628125e+05
    2.9699949082e-03    1.6884892188e+05
    2.9799658805e-03    1.6752884375e+05
    2.9899838846e-03    1.6622314062e+05
    2.9998063110e-03    1.6496140625e+05
    3.0098720454e-03    1.6368693750e+05
    3.0199310277e-03    1.6243289062e+05
    3.0299620703e-03    1.6120221875e+05
    3.0399425887e-03    1.5999740625e+05
    3.0498467386e-03    1.5882073438e+05
    3.0598388985e-03    1.5765182812e+05
    3.0698666815e-03    1.5649687500e+05
    3.0798681546e-03    1.5536368750e+05
    3.0899415724e-03    1.5424206250e+05
    3.0999705195e-03    1.5314550000e+05
    3.1099552289e-03    1.5207342188e+05
    3.1199199148e-03    1.5102109375e+05
    3.1299490947e-03    1.4997673438e+05
    3.1399482395e-03    1.4895089062e+05
    3.1498847529e-03    1.4794485938e+05
    3.1599078793e-03    1.4694212500e+05
    3.1699182000e-03    1.4595492188e+05
    3.1799727585e-03    1.4498417188e+05
    3.1899488531e-03    1.4404015625e+05
    3.1999333296e-03    1.4310984375e+05
    3.2099706586e-03    1.4218559375e+05
    3.2198722474e-03    1.4128195312e+05
    3.2298238948e-03    1.4038195312e+05
    3.2399033662e-03    1.3948296875e+05
    3.2499721274e-03    1.3860278125e+05
    3.2599871047e-03    1.3774759375e+05
    3.2698565628e-03    1.3691904688e+05
    3.2799134497e-03    1.3608428125e+05
    3.2898432110e-03    1.3526648438e+05
    3.2998875249e-03    1.3444581250e+05
    3.3098135609e-03    1.3364675000e+05
    3.3198453020e-03    1.3285557812e+05
    3.3299420029e-03    1.3207612500e+05
    3.3399376553e-03    1.3131671875e+05
    3.3498092089e-03    1.3057547656e+05
    3.3599431626e-03    1.2981850000e+05
    3.3699434716e-03    1.2907521875e+05
    3.3799996600e-03    1.2833732031e+05
    3.3899405971e-03    1.2763000781e+05
    3.3999001607e-03    1.2694210156e+05
    3.4099444747e-03    1.2625081250e+05
    3.4198225476e-03    1.2556128906e+05
    3.4299658146e-03    1.2485814844e+05
    3.4399572760e-03    1.2419863281e+05
    3.4499794710e-03    1.2356678906e+05
    3.4598498605e-03    1.2293100000e+05
    3.4699707758e-03    1.2224910156e+05
    3.4799273126e-03    1.2158255469e+05
    3.4899290185e-03    1.2096246094e+05
    3.4999579657e-03    1.2039708594e+05
    3.5098365042e-03    1.1984400781e+05
    3.5199378617e-03    1.1922390625e+05
    3.5298957955e-03    1.1857972656e+05
    3.5398569889e-03    1.1794910156e+05
    3.5498747602e-03    1.1735222656e+05
    3.5599349067e-03    1.1679318750e+05
    3.5697757266e-03    1.1627841406e+05
    3.5799262114e-03    1.1575642969e+05
    3.5898322240e-03    1.1523539844e+05
    3.5997969098e-03    1.1469797656e+05
    3.6098079290e-03    1.1415011719e+05
    3.6198068410e-03    1.1360033594e+05
    3.6298939958e-03    1.1304622656e+05
    3.6399704404e-03    1.1250219531e+05
    3.6498396657e-03    1.1198800000e+05
    3.6597922444e-03    1.1149007031e+05
    3.6699308548e-03    1.1099903125e+05
    3.6799181253e-03    1.1052286719e+05
    3.6899310071e-03    1.1004514844e+05
    3.6999152508e-03    1.0956835156e+05
    3.7097651511e-03    1.0910271094e+05
    3.7198180798e-03    1.0863342969e+05
    3.7299015094e-03    1.0816968750e+05
    3.7398145068e-03    1.0771844531e+05
    3.7499296013e-03    1.0726364844e+05
    3.7598691415e-03    1.0682116406e+05
    3.7698324304e-03    1.0638309375e+05
    3.7797905970e-03    1.0595150781e+05
    3.7898079026e-03    1.0552180469e+05
    3.7998345215e-03    1.0509697656e+05
    3.8098706864e-03    1.0467469531e+05
    3.8199422415e-03    1.0425243750e+05
    3.8297791034e-03    1.0384246875e+05
    3.8398816250e-03    1.0342260156e+05
    3.8497552741e-03    1.0301369531e+05
    3.8598903921e-03    1.0259955469e+05
    3.8697968703e-03    1.0220444531e+05
    3.8799617905e-03    1.0181287500e+05
    3.8898885250e-03    1.0144614844e+05
    3.8998257369e-03    1.0109096875e+05
    3.9097703993e-03    1.0073716406e+05
    3.9199697785e-03    1.0036578906e+05
    3.9299246855e-03    9.9995101562e+04
    3.9398819208e-03    9.9624210938e+04
    3.9498405531e-03    9.9260031250e+04
    3.9597991854e-03    9.8902851562e+04
    3.9697573520e-03    9.8549164062e+04
    3.9799641818e-03    9.8189164062e+04
    3.9899214171e-03    9.7844445312e+04
    3.9998772554e-03    9.7513242188e+04
    4.0098321624e-03    9.7196710938e+04
    4.0197880007e-03    9.6885500000e+04
    4.0299911052e-03    9.6557039062e+04
    4.0399464779e-03    9.6221164062e+04
    4.0499023162e-03    9.5879835938e+04
    4.0598632768e-03    9.5549148438e+04
    4.0698242374e-03    9.5239531250e+04
    4.0797879919e-03    9.4949585938e+04
    4.0897619911e-03    9.4665593750e+04
    4.0999907069e-03    9.4363164062e+04
    4.1099735536e-03    9.4052304688e+04
    4.1199647821e-03    9.3736585938e+04
    4.1299667209e-03    9.3429843750e+04
    4.1399691254e-03    9.3140000000e+04
    4.1499803774e-03    9.2866898438e+04
    4.1597560048e-03    9.2607976562e+04
    4.1697924025e-03    9.2335023438e+04
    4.1798264720e-03    9.2045460938e+04
    4.1898740456e-03    9.1746835938e+04
    4.1999351233e-03    9.1458875000e+04
    4.2097503319e-03    9.1201960938e+04
    4.2198174633e-03    9.0958148438e+04
    4.2299078777e-03    9.0709968750e+04
    4.2397491634e-03    9.0444960938e+04
    4.2498488910e-03    9.0158570312e+04
    4.2599504814e-03    8.9884523438e+04
    4.2698252946e-03    8.9643304688e+04
    4.2799478397e-03    8.9414929688e+04
    4.2898333631e-03    8.9185648438e+04
    4.2999731377e-03    8.8926437500e+04
    4.3098847382e-03    8.8661898438e+04
    4.3197777122e-03    8.8412585938e+04
    4.3299510144e-03    8.8184023438e+04
    4.3398775160e-03    8.7974585938e+04
    4.3498221785e-03    8.7751632812e+04
    4.3599973433e-03    8.7499179688e+04
    4.3699541129e-03    8.7249601562e+04
    4.3799118139e-03    8.7024468750e+04
    4.3898881413e-03    8.6823453125e+04
    4.3998425826e-03    8.6621390625e+04
    4.4098352082e-03    8.6395429688e+04
    4.4198199175e-03    8.6156234375e+04
    4.4298251159e-03    8.5932304688e+04
    4.4398107566e-03    8.5736242188e+04
    4.4498341158e-03    8.5546570312e+04
    4.4598439708e-03    8.5338523438e+04
    4.4698826969e-03    8.5111484375e+04
    4.4799060561e-03    8.4892578125e+04
    4.4899592176e-03    8.4697640625e+04
    4.4999993406e-03    8.4515578125e+04
    4.5098117553e-03    8.4325546875e+04
    4.5198686421e-03    8.4114687500e+04
    4.5299488120e-03    8.3908234375e+04
    4.5397607610e-03    8.3727320312e+04
    4.5498590916e-03    8.3551773438e+04
    4.5599485748e-03    8.3364375000e+04
    4.5697977766e-03    8.3167421875e+04
    4.5798975043e-03    8.2971000000e+04
    4.5897602104e-03    8.2796976562e+04
    4.5998804271e-03    8.2627156250e+04
    4.6097557060e-03    8.2452351562e+04
    4.6198838390e-03    8.2262765625e+04
    4.6297679655e-03    8.2082859375e+04
    4.6399175189e-03    8.1911500000e+04
    4.6498198062e-03    8.1750359375e+04
    4.6599796042e-03    8.1576750000e+04
    4.6698856167e-03    8.1401554688e+04
    4.6797972172e-03    8.1232968750e+04
    4.6899830922e-03    8.1071164062e+04
    4.6999105252e-03    8.0913890625e+04
    4.7098393552e-03    8.0750421875e+04
    4.7197742388e-03    8.0585507812e+04
    4.7299815342e-03    8.0422789062e+04
    4.7399327159e-03    8.0269664062e+04
    4.7498838976e-03    8.0116914062e+04
    4.7598420642e-03    7.9959421875e+04
    4.7698053531e-03    7.9803632812e+04
    4.7797770239e-03    7.9654187500e+04
    4.7897486947e-03    7.9507929688e+04
    4.7999932431e-03    7.9356031250e+04
    4.8099816777e-03    7.9207984375e+04
    4.8199770972e-03    7.9061585938e+04
    4.8299655318e-03    7.8919539062e+04
    4.8399604857e-03    7.8779343750e+04
    4.8499591649e-03    7.8637421875e+04
    4.8599787988e-03    7.8496328125e+04
    4.8697427846e-03    7.8361945312e+04
    4.8797689378e-03    7.8225234375e+04
    4.8897904344e-03    7.8089796875e+04
    4.8998072743e-03    7.7954546875e+04
    4.9098292366e-03    7.7820593750e+04
    4.9198605120e-03    7.7689484375e+04
    4.9299011007e-03    7.7558781250e+04
    4.9399402924e-03    7.7429109375e+04
    4.9499771558e-03    7.7300359375e+04
    4.9597481266e-03    7.7176203125e+04
    4.9697821960e-03    7.7050914062e+04
    4.9798157997e-03    7.6926007812e+04
    4.9898489378e-03    7.6802562500e+04
    4.9998839386e-03    7.6680578125e+04
    5.0099221990e-03    7.6559781250e+04
    5.0199632533e-03    7.6440507812e+04
    5.0297412090e-03    7.6324531250e+04
    5.0397817977e-03    7.6206625000e+04
    5.0498214550e-03    7.6089921875e+04
    5.0598597154e-03    7.5974906250e+04
    5.0698970445e-03    7.5861578125e+04
    5.0799348392e-03    7.5748914062e+04
    5.0899721682e-03    7.5637093750e+04
    5.0997454673e-03    7.5528742188e+04
    5.1097827964e-03    7.5419250000e+04
    5.1198201254e-03    7.5311359375e+04
    5.1298569888e-03    7.5204351562e+04
    5.1398933865e-03    7.5097585938e+04
    5.1499297842e-03    7.4991437500e+04
    5.1599657163e-03    7.4887250000e+04
    5.1697371528e-03    7.4787515625e+04
    5.1797721535e-03    7.4686125000e+04
    5.1898076199e-03    7.4584718750e+04
    5.1998430863e-03    7.4483914062e+04
    5.2098790184e-03    7.4384382812e+04
    5.2199163474e-03    7.4286367188e+04
    5.2299532108e-03    7.4189414062e+04
    5.2399891429e-03    7.4093242188e+04
    5.2497596480e-03    7.4000445312e+04
    5.2597927861e-03    7.3906070312e+04
    5.2698254585e-03    7.3812710938e+04
    5.2798581310e-03    7.3720328125e+04
    5.2898903377e-03    7.3628992188e+04
    5.2999248728e-03    7.3538632812e+04
    5.3099608049e-03    7.3449164062e+04
    5.3199976683e-03    7.3360421875e+04
    5.3297700360e-03    7.3274796875e+04
    5.3398055024e-03    7.3187789062e+04
    5.3498400375e-03    7.3101820312e+04
    5.3598736413e-03    7.3016812500e+04
    5.3699067794e-03    7.2932679688e+04
    5.3799385205e-03    7.2849289062e+04
    5.3899739869e-03    7.2766578125e+04
    5.3997500800e-03    7.2686734375e+04
    5.4097883403e-03    7.2605648438e+04
    5.4198256694e-03    7.2525601562e+04
    5.4298620671e-03    7.2446609375e+04
    5.4398975335e-03    7.2368500000e+04
    5.4499376565e-03    7.2291000000e+04
    5.4599805735e-03    7.2214078125e+04
    5.4697580636e-03    7.2139968750e+04
    5.4797986522e-03    7.2064890625e+04
    5.4898383096e-03    7.1990750000e+04
    5.4998788983e-03    7.1917218750e+04
    5.5099246092e-03    7.1844171875e+04
    5.5199689232e-03    7.1771898438e+04
    5.5297482759e-03    7.1702460938e+04
    5.5397907272e-03    7.1631914062e+04
    5.5498350412e-03    7.1561953125e+04
    5.5598826148e-03    7.1492742188e+04
    5.5699292570e-03    7.1424562500e+04
    5.5799749680e-03    7.1357359375e+04
    5.5897552520e-03    7.1292523438e+04
    5.5998042226e-03    7.1226289062e+04
    5.6098541245e-03    7.1160617188e+04
    5.6199030951e-03    7.1095828125e+04
    5.6299511343e-03    7.1031992188e+04
    5.6397356093e-03    7.0970523438e+04
    5.6497873738e-03    7.0907859375e+04
    5.6598382071e-03    7.0845757812e+04
    5.6698885746e-03    7.0784476562e+04
    5.6799384765e-03    7.0724132812e+04
    5.6899911724e-03    7.0664492188e+04
    5.6997784413e-03    7.0606898438e+04
    5.7098297402e-03    7.0548250000e+04
    5.7198810391e-03    7.0490296875e+04
    5.7299337350e-03    7.0433117188e+04
    5.7399859652e-03    7.0376625000e+04
    5.7497727685e-03    7.0322195312e+04
    5.7598249987e-03    7.0266890625e+04
    5.7698772289e-03    7.0212273438e+04
    5.7799289934e-03    7.0158351562e+04
    5.7899807580e-03    7.0105023438e+04
    5.7997680269e-03    7.0053625000e+04
    5.8098193258e-03    7.0001390625e+04
    5.8198706247e-03    6.9949742188e+04
    5.8299219236e-03    6.9898703125e+04
    5.8399722911e-03    6.9848351562e+04
    5.8497581631e-03    6.9800039062e+04
    5.8598085307e-03    6.9751078125e+04
    5.8698593639e-03    6.9702546875e+04
    5.8799111284e-03    6.9654265625e+04
    5.8899624273e-03    6.9606320312e+04
    5.8997487649e-03    6.9560226562e+04
    5.9097986668e-03    6.9513609375e+04
    5.9198481031e-03    6.9467515625e+04
    5.9298970737e-03    6.9421640625e+04
    5.9399465099e-03    6.9375992188e+04
    5.9499973431e-03    6.9330890625e+04
    5.9597832151e-03    6.9287968750e+04
    5.9698340483e-03    6.9245437500e+04
    5.9798839502e-03    6.9205273438e+04
    5.9899338521e-03    6.9168429688e+04
    5.9999832883e-03    6.9135171875e+04
    6.0097682290e-03    6.9104906250e+04
    6.0198171996e-03    6.9072945312e+04
    6.0298657045e-03    6.9036898438e+04
    6.0399142094e-03    6.8995937500e+04
    6.0499617830e-03    6.8952632812e+04
    6.0597448610e-03    6.8912242188e+04
    6.0697919689e-03    6.8875070312e+04
    6.0798386112e-03    6.8841335938e+04
    6.0898852535e-03    6.8808007812e+04
    6.0999323614e-03    6.8773234375e+04
    6.1099804007e-03    6.8737843750e+04
    6.1197639443e-03    6.8704437500e+04
    6.1298115179e-03    6.8671632812e+04
    6.1398586258e-03    6.8639507812e+04
    6.1499043368e-03    6.8607437500e+04
    6.1599505134e-03    6.8575664062e+04
    6.1699957587e-03    6.8544507812e+04
    6.1797774397e-03    6.8514718750e+04
    6.1898240820e-03    6.8484523438e+04
    6.1998702586e-03    6.8454820312e+04
    6.2099159695e-03    6.8425687500e+04
    6.2199612148e-03    6.8397039062e+04
    6.2297414988e-03    6.8369531250e+04
    6.2397862785e-03    6.8341742188e+04
    6.2498310581e-03    6.8314539062e+04
    6.2598753721e-03    6.8287929688e+04
    6.2699192204e-03    6.8261796875e+04
    6.2799626030e-03    6.8236148438e+04
    6.2897414900e-03    6.8211695312e+04
    6.2997844070e-03    6.8187093750e+04
    6.3098273240e-03    6.8162859375e+04
    6.3198707066e-03    6.8138921875e+04
    6.3299145550e-03    6.8115429688e+04
    6.3399574719e-03    6.8092578125e+04
    6.3497382216e-03    6.8070890625e+04
    6.3597867265e-03    6.8048929688e+04
    6.3698366284e-03    6.8027226562e+04
    6.3798874617e-03    6.8006000000e+04
    6.3899466768e-03    6.7985382812e+04
    6.3997488469e-03    6.7965820312e+04
    6.4098215662e-03    6.7946132812e+04
    6.4198984765e-03    6.7926812500e+04
    6.4299851656e-03    6.7907898438e+04
    6.4398217946e-03    6.7889890625e+04
    6.4499308355e-03    6.7871875000e+04
    6.4597777091e-03    6.7854757812e+04
    6.4699049108e-03    6.7837531250e+04
    6.4797778614e-03    6.7821148438e+04
    6.4899264835e-03    6.7804820312e+04
    6.4998166636e-03    6.7789421875e+04
    6.5099811181e-03    6.7773984375e+04
    6.5198936500e-03    6.7759265625e+04
    6.5298154950e-03    6.7744914062e+04
    6.5397461876e-03    6.7730976562e+04
    6.5499525517e-03    6.7717109375e+04
    6.5598995425e-03    6.7704023438e+04
    6.5698544495e-03    6.7691320312e+04
    6.5798219293e-03    6.7678882812e+04
    6.5897973254e-03    6.7666687500e+04
    6.5997815691e-03    6.7654921875e+04
    6.6097727977e-03    6.7643898438e+04
    6.6197728738e-03    6.7633703125e+04
    6.6297831945e-03    6.7624015625e+04
    6.6398014314e-03    6.7614359375e+04
    6.6498275846e-03    6.7604554688e+04
    6.6598569974e-03    6.7594914062e+04
    6.6698966548e-03    6.7585914062e+04
    6.6799488850e-03    6.7577734375e+04
    6.6897328943e-03    6.7570359375e+04
    6.6997963004e-03    6.7563109375e+04
    6.7098694853e-03    6.7556117188e+04
    6.7199431360e-03    6.7549414062e+04
    6.7297630012e-03    6.7543164062e+04
    6.7398594692e-03    6.7537156250e+04
    6.7499564029e-03    6.7531757812e+04
    6.7597925663e-03    6.7527062500e+04
    6.7699071951e-03    6.7522539062e+04
    6.7797554657e-03    6.7518218750e+04
    6.7898891866e-03    6.7514054688e+04
    6.7997430451e-03    6.7510578125e+04
    6.8098828197e-03    6.7507539062e+04
    6.8197590299e-03    6.7504820312e+04
    6.8299137056e-03    6.7502203125e+04
    6.8398038857e-03    6.7500085938e+04
    6.8499618210e-03    6.7498523438e+04
    6.8598561920e-03    6.7497445312e+04
    6.8697663955e-03    6.7496617188e+04
    6.8799527362e-03    6.7496007812e+04
    6.8898745812e-03    6.7495812500e+04
    6.8997922353e-03    6.7496101562e+04
    6.9099855609e-03    6.7496875000e+04
    6.9199255668e-03    6.7498046875e+04
    6.9298623130e-03    6.7499546875e+04
    6.9398097694e-03    6.7501343750e+04
    6.9497632794e-03    6.7503492188e+04
    6.9599812850e-03    6.7506140625e+04
    6.9699427113e-03    6.7509195312e+04
    6.9799134508e-03    6.7512664062e+04
    6.9898781367e-03    6.7516445312e+04
    6.9998619147e-03    6.7520484375e+04
    7.0098363794e-03    6.7524765625e+04
    7.0198196918e-03    6.7529414062e+04
    7.0298179053e-03    6.7534554688e+04
    7.0398109965e-03    6.7540203125e+04
    7.0498138666e-03    6.7546203125e+04
    7.0598204620e-03    6.7552414062e+04
    7.0698256604e-03    6.7558828125e+04
    7.0798466913e-03    6.7565648438e+04
    7.0898649283e-03    6.7573039062e+04
    7.0998901501e-03    6.7581000000e+04
    7.1099265479e-03    6.7589367188e+04
    7.1199582890e-03    6.7597914062e+04
    7.1299988776e-03    6.7606585938e+04
    7.1397647262e-03    6.7615289062e+04
    7.1498113684e-03    6.7624765625e+04
    7.1598715149e-03    6.7634898438e+04
    7.1699325927e-03    6.7645500000e+04
    7.1799964644e-03    6.7656281250e+04
    7.1897865273e-03    6.7666828125e+04
    7.1998559870e-03    6.7677937500e+04
    7.2099315003e-03    6.7689585938e+04
    7.2197318077e-03    6.7701523438e+04
    7.2298175655e-03    6.7714273438e+04
    7.2399089113e-03    6.7727281250e+04
    7.2497203946e-03    6.7740046875e+04
    7.2598173283e-03    6.7753375000e+04
    7.2699235752e-03    6.7767101562e+04
    7.2797513567e-03    6.7780992188e+04
    7.2898645885e-03    6.7795859375e+04
    7.2999824770e-03    6.7811195312e+04
    7.3098228313e-03    6.7826351562e+04
    7.3199472390e-03    6.7842062500e+04
    7.3297945783e-03    6.7857531250e+04
    7.3399301618e-03    6.7873929688e+04
    7.3497882113e-03    6.7890570312e+04
    7.3599298485e-03    6.7908289062e+04
    7.3697976768e-03    6.7925796875e+04
    7.3799546808e-03    6.7943789062e+04
    7.3898285627e-03    6.7961304688e+04
    7.3999878950e-03    6.7979679688e+04
    7.4098729528e-03    6.7998203125e+04
    7.4197612703e-03    6.8017421875e+04
    7.4299364351e-03    6.8037687500e+04
    7.4398340657e-03    6.8057554688e+04
    7.4497377500e-03    6.8077460938e+04
    7.4599287473e-03    6.8098171875e+04
    7.4698347598e-03    6.8118867188e+04
    7.4797426350e-03    6.8140304688e+04
    7.4899443425e-03    6.8162968750e+04
    7.4998685159e-03    6.8185226562e+04
    7.5097978115e-03    6.8207429688e+04
    7.5197331607e-03    6.8229687500e+04
    7.5299530290e-03    6.8252984375e+04
    7.5398902409e-03    6.8276312500e+04
    7.5498293154e-03    6.8300343750e+04
    7.5597767718e-03    6.8324812500e+04
    7.5697340071e-03    6.8349445312e+04
    7.5799808837e-03    6.8374851562e+04
    7.5899427757e-03    6.8399804688e+04
    7.5999097899e-03    6.8425265625e+04
    7.6098768041e-03    6.8451312500e+04
    7.6198461466e-03    6.8477867188e+04
    7.6298252679e-03    6.8504781250e+04
    7.6398137026e-03    6.8531960938e+04
    7.6498053968e-03    6.8559398438e+04
    7.6598003507e-03    6.8587156250e+04
    7.6697962359e-03    6.8615328125e+04
    7.6798000373e-03    6.8644000000e+04
    7.6898047701e-03    6.8673156250e+04
    7.6998104341e-03    6.8702710938e+04
    7.7098268084e-03    6.8732593750e+04
    7.7198501676e-03    6.8762765625e+04
    7.7298753895e-03    6.8793281250e+04
    7.7399043366e-03    6.8824226562e+04
    7.7499374747e-03    6.8855625000e+04
    7.7599771321e-03    6.8887492188e+04
    7.7697299421e-03    6.8918828125e+04
    7.7797714621e-03    6.8951453125e+04
    7.7898269519e-03    6.8984445312e+04
    7.7998847701e-03    6.9017789062e+04
    7.8099449165e-03    6.9051523438e+04
    7.8197252005e-03    6.9084726562e+04
    7.8297965229e-03    6.9119359375e+04
    7.8398697078e-03    6.9154445312e+04
    7.8499475494e-03    6.9189914062e+04
    7.8597422689e-03    6.9224695312e+04
    7.8698368743e-03    6.9260875000e+04
    7.8799305484e-03    6.9297460938e+04
    7.8897364438e-03    6.9333437500e+04
    7.8998394310e-03    6.9370890625e+04
    7.9099489376e-03    6.9408726562e+04
    7.9197706655e-03    6.9445875000e+04
    7.9298904166e-03    6.9484664062e+04
    7.9397279769e-03    6.9522921875e+04
    7.9498598352e-03    6.9562835938e+04
    7.9599879682e-03    6.9603164062e+04
    7.9698292539e-03    6.9642718750e+04
    7.9799722880e-03    6.9683804688e+04
    7.9898331314e-03    6.9724046875e+04
    7.9999798909e-03    6.9765781250e+04
    8.0098472536e-03    6.9806734375e+04
    8.0197220668e-03    6.9848171875e+04
    8.0298911780e-03    6.9891382812e+04
    8.0397734419e-03    6.9933890625e+04
    8.0499574542e-03    6.9978203125e+04
    8.0598611385e-03    7.0021757812e+04
    8.0697638914e-03    7.0065757812e+04
    8.0799497664e-03    7.0111453125e+04
    8.0898525193e-03    7.0156312500e+04
    8.0997562036e-03    7.0201609375e+04
    8.1099513918e-03    7.0248679688e+04
    8.1198671833e-03    7.0294859375e+04
    8.1297922879e-03    7.0341453125e+04
    8.1397220492e-03    7.0388453125e+04
    8.1499405205e-03    7.0437203125e+04
    8.1598600373e-03    7.0484898438e+04
    8.1697907299e-03    7.0533093750e+04
    8.1797316670e-03    7.0581867188e+04
    8.1899594516e-03    7.0632695312e+04
    8.1999106333e-03    7.0682773438e+04
    8.2098618150e-03    7.0733492188e+04
    8.2198176533e-03    7.0784843750e+04
    8.2297669724e-03    7.0836695312e+04
    8.2397218794e-03    7.0888968750e+04
    8.2499925047e-03    7.0943218750e+04
    8.2599790767e-03    7.0996320312e+04
    8.2699665800e-03    7.1049875000e+04
    8.2799643278e-03    7.1104015625e+04
    8.2899723202e-03    7.1158828125e+04
    8.2999765873e-03    7.1214273438e+04
    8.3099836484e-03    7.1270382812e+04
    8.3199841902e-03    7.1327062500e+04
    8.3299884573e-03    7.1384265625e+04
    8.3399917930e-03    7.1441921875e+04
    8.3499969915e-03    7.1500062500e+04
    8.3597162738e-03    7.1557031250e+04
    8.3697391674e-03    7.1616406250e+04
    8.3797629923e-03    7.1676468750e+04
    8.3897849545e-03    7.1737195312e+04
    8.3998069167e-03    7.1798523438e+04
    8.4098242223e-03    7.1860343750e+04
    8.4198452532e-03    7.1922757812e+04
    8.4298616275e-03    7.1985789062e+04
    8.4398854524e-03    7.2049546875e+04
    8.4499176592e-03    7.2114023438e+04
    8.4599507973e-03    7.2179164062e+04
    8.4699774161e-03    7.2244921875e+04
    8.4797143936e-03    7.2309414062e+04
    8.4897447377e-03    7.2376468750e+04
    8.4997750819e-03    7.2444757812e+04
    8.5098138079e-03    7.3558070312e+04
    8.5198534653e-03    1.0967946875e+05
    8.5298968479e-03    1.0942817969e+05
    8.5399365053e-03    1.0921182031e+05
    8.5499761626e-03    1.0906453125e+05
    8.5597289726e-03    1.0893960156e+05
    8.5697807372e-03    1.0881467969e+05
    8.5798352957e-03    1.0869107031e+05
    8.5898935795e-03    1.0856885156e+05
    8.5999593139e-03    1.0844791406e+05
    8.6097298190e-03    1.0833240625e+05
    8.6197955534e-03    1.0821331250e+05
    8.6298547685e-03    1.0809822656e+05
    8.6399130523e-03    1.0798006250e+05
    8.6499806494e-03    1.0786633594e+05
    8.6597539485e-03    1.0775314844e+05
    8.6698308587e-03    1.0763916406e+05
    8.6799087003e-03    1.0752417969e+05
    8.6899902672e-03    1.0740940625e+05
    8.6997775361e-03    1.0729785156e+05
    8.7098609656e-03    1.0718283594e+05
    8.7199425325e-03    1.0706743750e+05
    8.7297260761e-03    1.0695525000e+05
    8.7398048490e-03    1.0683942969e+05
    8.7498826906e-03    1.0672371094e+05
    8.7599605322e-03    1.0660784375e+05
    8.7697403505e-03    1.0649533594e+05
    8.7798172608e-03    1.0637918750e+05
    8.7898923084e-03    1.0626311719e+05
    8.7999673560e-03    1.0614711719e+05
    8.8097453117e-03    1.0603471094e+05
    8.8198184967e-03    1.0591906250e+05
    8.8298907503e-03    1.0580363281e+05
    8.8399639353e-03    1.0568860156e+05
    8.8497400284e-03    1.0557716406e+05
    8.8598113507e-03    1.0546264844e+05
    8.8698826730e-03    1.0534858594e+05
    8.8799549267e-03    1.0523507031e+05
    8.8897310197e-03    1.0512540625e+05
    8.8998032734e-03    1.0501278125e+05
    8.9098755270e-03    1.0490064844e+05
    8.9199468493e-03    1.0478902344e+05
    8.9297238737e-03    1.0468122656e+05
    8.9397961274e-03    1.0457069531e+05
    8.9498730376e-03    1.0446072656e+05
    8.9599564672e-03    1.0435121094e+05
    8.9697437361e-03    1.0424535156e+05
    8.9798271656e-03    1.0413728906e+05
    8.9899096638e-03    1.0402946875e+05
    8.9999930933e-03    1.0392221875e+05
    9.0097943321e-03    1.0381938281e+05
    9.0199019760e-03    1.0371288281e+05
    9.0297125280e-03    1.0361061719e+05
    9.0398276225e-03    1.0350525781e+05
    9.0499455109e-03    1.0340027344e+05
    9.0597653762e-03    1.0329878906e+05
    9.0698953718e-03    1.0319527344e+05
    9.0797422454e-03    1.0309560156e+05
    9.0898964554e-03    1.0299353906e+05
    9.0997647494e-03    1.0289469531e+05
    9.1099254787e-03    1.0279310156e+05
    9.1197965667e-03    1.0269478906e+05
    9.1299982741e-03    1.0259385156e+05
    9.1399028897e-03    1.0249647656e+05
    9.1498149559e-03    1.0239977344e+05
    9.1597475111e-03    1.0230349219e+05
    9.1699836776e-03    1.0220472656e+05
    9.1799218208e-03    1.0210933594e+05
    9.1898720711e-03    1.0201443750e+05
    9.1998279095e-03    1.0192017969e+05
    9.2097893357e-03    1.0182632031e+05
    9.2197610065e-03    1.0173280469e+05
    9.2297308147e-03    1.0163993750e+05
    9.2397099361e-03    1.0154747656e+05
    9.2497030273e-03    1.0145527344e+05
    9.2597007751e-03    1.0136357031e+05
    9.2697106302e-03    1.0127227344e+05
    9.2797307298e-03    1.0118133594e+05
    9.2897498980e-03    1.0109110156e+05
    9.2997681350e-03    1.0100152344e+05
    9.3097826466e-03    1.0091246094e+05
    9.3198399991e-03    1.0082361719e+05
    9.3297129497e-03    1.0073678125e+05
    9.3397507444e-03    1.0064880469e+05
    9.3499915674e-03    1.0055996094e+05
    9.3598021194e-03    1.0047521094e+05
    9.3698287383e-03    1.0038818750e+05
    9.3797324225e-03    1.0030324219e+05
    9.3898437917e-03    1.0021678906e+05
    9.3998033553e-03    1.0013267969e+05
    9.4099538401e-03    1.0004693750e+05
    9.4199208543e-03    9.9963960938e+04
    9.4296820462e-03    9.9882726562e+04
    9.4399880618e-03    9.9797710938e+04
    9.4496821985e-03    9.9717929688e+04
    9.4599183649e-03    9.9634250000e+04
    9.4699077308e-03    9.9552960938e+04
    9.4796326011e-03    9.9474242188e+04
    9.4899022952e-03    9.9391523438e+04
    9.4998925924e-03    9.9311585938e+04
    9.5095857978e-03    9.9234375000e+04
    9.5198210329e-03    9.9153164062e+04
    9.5297433436e-03    9.9074781250e+04
    9.5397764817e-03    9.8995843750e+04
    9.5499269664e-03    9.8916585938e+04
    9.5597459003e-03    9.8840414062e+04
    9.5696663484e-03    9.8763789062e+04
    9.5796799287e-03    9.8686789062e+04
    9.5897587016e-03    9.8609601562e+04
    9.5998765901e-03    9.8532632812e+04
    9.6095623448e-03    9.8459289062e+04
    9.6197444946e-03    9.8382601562e+04
    9.6299750730e-03    9.8305789062e+04
    9.6397968009e-03    9.8232476562e+04
    9.6496716142e-03    9.8159476562e+04
    9.6595846117e-03    9.8086445312e+04
    9.6695479006e-03    9.8013070312e+04
    9.6795558929e-03    9.7939617188e+04
    9.6896123141e-03    9.7866398438e+04
    9.6997525543e-03    9.7793273438e+04
    9.7099170089e-03    9.7720023438e+04
    9.7196204588e-03    9.7650210938e+04
    9.7298966721e-03    9.7576773438e+04
    9.7396848723e-03    9.7507054688e+04
    9.7495540977e-03    9.7437101562e+04
    9.7599392757e-03    9.7363593750e+04
    9.7698662430e-03    9.7293710938e+04
    9.7798807546e-03    9.7223898438e+04
    9.7898663953e-03    9.7153937500e+04
    9.7999284044e-03    9.7084460938e+04
    9.8095545545e-03    9.7017679688e+04
    9.8197078332e-03    9.6947507812e+04
    9.8298704252e-03    9.6877968750e+04
    9.8396083340e-03    9.6811914062e+04
    9.8498947918e-03    9.6742164062e+04
    9.8596327007e-03    9.6675726562e+04
    9.8699619994e-03    9.6605539062e+04
    9.8798684776e-03    9.6538210938e+04
    9.8897740245e-03    9.6470976562e+04
    9.8997605965e-03    9.6404976562e+04
    9.9096903577e-03    9.6340281250e+04
    9.9196229130e-03    9.6276101562e+04
    9.9296076223e-03    9.6210414062e+04
    9.9396370351e-03    9.6141937500e+04
    9.9497456104e-03    9.6071773438e+04
    9.9598597735e-03    9.6003085938e+04
    9.9699692801e-03    9.5938414062e+04
    9.9796168506e-03    9.5881070312e+04
    9.9897757173e-03    9.5822039062e+04
    9.9994828925e-03    9.5763210938e+04
    1.0009697638e-02    9.5695500000e+04
    1.0019453242e-02    9.5626335938e+04
    1.0029729456e-02    9.5552320312e+04
    1.0039510205e-02    9.5485476562e+04
    1.0049824603e-02    9.5419710938e+04
    1.0059514083e-02    9.5361406250e+04
    1.0069616139e-02    9.5303148438e+04
    1.0079988278e-02    9.5244718750e+04
    1.0089981370e-02    9.5187789062e+04
    1.0099567473e-02    9.5131406250e+04
    1.0109661147e-02    9.5069382812e+04
    1.0119731538e-02    9.5005492188e+04
    1.0129734874e-02    9.4940843750e+04
    1.0139624588e-02    9.4876117188e+04
    1.0149721056e-02    9.4810679688e+04
    1.0159906931e-02    9.4745710938e+04
    1.0169748217e-02    9.4684789062e+04
    1.0179767385e-02    9.4624601562e+04
    1.0189749300e-02    9.4565968750e+04
    1.0199908167e-02    9.4506726562e+04
    1.0209840722e-02    9.4448460938e+04
    1.0219885036e-02    9.4388960938e+04
    1.0229931213e-02    9.4329468750e+04
    1.0239860043e-02    9.4270867188e+04
    1.0249872692e-02    9.4212156250e+04
    1.0259984992e-02    9.4153226562e+04
    1.0269916616e-02    9.4095531250e+04
    1.0279939510e-02    9.4037500000e+04
    1.0289821774e-02    9.3980507812e+04
    1.0299881920e-02    9.3922632812e+04
    1.0309907608e-02    9.3865023438e+04
    1.0319987312e-02    9.3807437500e+04
    1.0329898447e-02    9.3750898438e+04
    1.0339869186e-02    9.3693367188e+04
    1.0349857621e-02    9.3634992188e+04
    1.0359862819e-02    9.3575718750e+04
    1.0369851254e-02    9.3516117188e+04
    1.0379788466e-02    9.3457093750e+04
    1.0389872827e-02    9.3397906250e+04
    1.0399841703e-02    9.3341132812e+04
    1.0409900919e-02    9.3286492188e+04
    1.0419820435e-02    9.3234539062e+04
    1.0429807939e-02    9.3183023438e+04
    1.0439852253e-02    9.3130148438e+04
    1.0449945927e-02    9.3075148438e+04
    1.0459852405e-02    9.3019320312e+04
    1.0469802655e-02    9.2962226562e+04
    1.0479790159e-02    9.2905718750e+04
    1.0489810258e-02    9.2848695312e+04
    1.0499864817e-02    9.2791851562e+04
    1.0509951971e-02    9.2735062500e+04
    1.0519822128e-02    9.2680023438e+04
    1.0529964231e-02    9.2625242188e+04
    1.0539880022e-02    9.2573218750e+04
    1.0549820960e-02    9.2521742188e+04
    1.0559781455e-02    9.2469062500e+04
    1.0569767095e-02    9.2414164062e+04
    1.0579768568e-02    9.2357367188e+04
    1.0589791462e-02    9.2300257812e+04
    1.0599832982e-02    9.2244960938e+04
    1.0609882884e-02    9.2192289062e+04
    1.0619958863e-02    9.2141085938e+04
    1.0629790835e-02    9.2090468750e+04
    1.0639895685e-02    9.2036250000e+04
    1.0649762116e-02    9.1981601562e+04
    1.0659891181e-02    9.1925226562e+04
    1.0669793002e-02    9.1872132812e+04
    1.0679943487e-02    9.1819773438e+04
    1.0689864866e-02    9.1769726562e+04
    1.0699798353e-02    9.1718125000e+04
    1.0709994473e-02    9.1663437500e+04
    1.0719949380e-02    9.1609101562e+04
    1.0729910806e-02    9.1555585938e+04
    1.0739914142e-02    9.1503617188e+04
    1.0749913752e-02    9.1452960938e+04
    1.0759901255e-02    9.1402000000e+04
    1.0769930668e-02    9.1349335938e+04
    1.0779979639e-02    9.1295351562e+04
    1.0789760388e-02    9.1244031250e+04
    1.0799814947e-02    9.1192539062e+04
    1.0809905827e-02    9.1142226562e+04
    1.0819999501e-02    9.1090710938e+04
    1.0829834267e-02    9.1039250000e+04
    1.0839952156e-02    9.0985523438e+04
    1.0849835351e-02    9.0934718750e+04
    1.0859972797e-02    9.0883867188e+04
    1.0869850405e-02    9.0834601562e+04
    1.0879760608e-02    9.0783632812e+04
    1.0889949277e-02    9.0730726562e+04
    1.0899866931e-02    9.0679781250e+04
    1.0909797624e-02    9.0629945312e+04
    1.0919753462e-02    9.0580750000e+04
    1.0929981247e-02    9.0528875000e+04
    1.0939949192e-02    9.0478070312e+04
    1.0949928313e-02    9.0427335938e+04
    1.0959926061e-02    9.0377507812e+04
    1.0969928466e-02    9.0327968750e+04
    1.0979936458e-02    9.0277429688e+04
    1.0989962146e-02    9.0226882812e+04
    1.0999998078e-02    9.0176468750e+04
    1.1009769514e-02    9.0128304688e+04
    1.1019812897e-02    9.0079054688e+04
    1.1029874906e-02    9.0028804688e+04
    1.1039947160e-02    8.9978664062e+04
    1.1049754918e-02    8.9930226562e+04
    1.1059834622e-02    8.9880625000e+04
    1.1069926433e-02    8.9831070312e+04
    1.1079761200e-02    8.9782398438e+04
    1.1089868844e-02    8.9732664062e+04
    1.1099982075e-02    8.9683414062e+04
    1.1109838262e-02    8.9635398438e+04
    1.1119967327e-02    8.9586343750e+04
    1.1129835621e-02    8.9538710938e+04
    1.1139980517e-02    8.9489898438e+04
    1.1149864644e-02    8.9442289062e+04
    1.1159752496e-02    8.9393835938e+04
    1.1169913225e-02    8.9343617188e+04
    1.1179816909e-02    8.9294718750e+04
    1.1189994402e-02    8.9244937500e+04
    1.1199904606e-02    8.9197093750e+04
    1.1209819466e-02    8.9149929688e+04
    1.1219741777e-02    8.9103585938e+04
    1.1229938827e-02    8.9056539062e+04
    1.1239876039e-02    8.9010148438e+04
    1.1249816045e-02    8.8963726562e+04
    1.1259757914e-02    8.8916804688e+04
    1.1269971728e-02    8.8868101562e+04
    1.1279920116e-02    8.8820507812e+04
    1.1289873160e-02    8.8773273438e+04
    1.1299831793e-02    8.8726101562e+04
    1.1309793219e-02    8.8679164062e+04
    1.1319761164e-02    8.8632562500e+04
    1.1329735629e-02    8.8586093750e+04
    1.1339982040e-02    8.8538093750e+04
    1.1349959299e-02    8.8491367188e+04
    1.1359934695e-02    8.8444867188e+04
    1.1369910091e-02    8.8398695312e+04
    1.1379886419e-02    8.8352812500e+04
    1.1389861815e-02    8.8307210938e+04
    1.1399838142e-02    8.8262125000e+04
    1.1409815401e-02    8.8217429688e+04
    1.1419795454e-02    8.8173218750e+04
    1.1429776438e-02    8.8128710938e+04
    1.1439758353e-02    8.8084101562e+04
    1.1449741200e-02    8.8039273438e+04
    1.1459995061e-02    8.7992835938e+04
    1.1469979770e-02    8.7947273438e+04
    1.1479964480e-02    8.7901281250e+04
    1.1489950120e-02    8.7855875000e+04
    1.1499935761e-02    8.7810773438e+04
    1.1509920470e-02    8.7766601562e+04
    1.1519906111e-02    8.7723242188e+04
    1.1529892683e-02    8.7679585938e+04
    1.1539878324e-02    8.7637031250e+04
    1.1549865827e-02    8.7593664062e+04
    1.1559853330e-02    8.7549937500e+04
    1.1569841765e-02    8.7506398438e+04
    1.1579830199e-02    8.7462679688e+04
    1.1589820497e-02    8.7418789062e+04
    1.1599810794e-02    8.7375015625e+04
    1.1609801091e-02    8.7332531250e+04
    1.1619792320e-02    8.7290234375e+04
    1.1629784480e-02    8.7248085938e+04
    1.1639776640e-02    8.7205781250e+04
    1.1649768800e-02    8.7163539062e+04
    1.1659760959e-02    8.7120875000e+04
    1.1669754051e-02    8.7078593750e+04
    1.1679747142e-02    8.7036648438e+04
    1.1689741164e-02    8.6994953125e+04
    1.1699735187e-02    8.6953203125e+04
    1.1709999293e-02    8.6910656250e+04
    1.1719996110e-02    8.6869421875e+04
    1.1729995720e-02    8.6828320312e+04
    1.1739999987e-02    8.6787226562e+04
    1.1749737896e-02    8.6747226562e+04
    1.1759747751e-02    8.6706492188e+04
    1.1769756675e-02    8.6666023438e+04
    1.1779764667e-02    8.6625375000e+04
    1.1789771728e-02    8.6584937500e+04
    1.1799777858e-02    8.6544875000e+04
    1.1809783056e-02    8.6504898438e+04
    1.1819790117e-02    8.6465210938e+04
    1.1829799972e-02    8.6425585938e+04
    1.1839812621e-02    8.6386093750e+04
    1.1849826202e-02    8.6346664062e+04
    1.1859838851e-02    8.6307117188e+04
    1.1869851500e-02    8.6268304688e+04
    1.1879863217e-02    8.6229265625e+04
    1.1889875866e-02    8.6190375000e+04
    1.1899889447e-02    8.6152007812e+04
    1.1909902096e-02    8.6113523438e+04
    1.1919915676e-02    8.6075218750e+04
    1.1929929256e-02    8.6037046875e+04
    1.1939942837e-02    8.5999125000e+04
    1.1949956417e-02    8.5961210938e+04
    1.1959969997e-02    8.5923703125e+04
    1.1969983578e-02    8.5886250000e+04
    1.1979997158e-02    8.5849015625e+04
    1.1989740655e-02    8.5812937500e+04
    1.1999754235e-02    8.5776015625e+04
    1.2009769678e-02    8.5739125000e+04
    1.2019784190e-02    8.5702492188e+04
    1.2029797770e-02    8.5666210938e+04
    1.2039812282e-02    8.5630140625e+04
    1.2049826793e-02    8.5594015625e+04
    1.2059841305e-02    8.5557742188e+04
    1.2069856748e-02    8.5521570312e+04
    1.2079871260e-02    8.5486218750e+04
    1.2089886703e-02    8.5451265625e+04
    1.2099901214e-02    8.5415750000e+04
    1.2109915726e-02    8.5380476562e+04
    1.2119931169e-02    8.5346148438e+04
    1.2129945680e-02    8.5311304688e+04
    1.2139961123e-02    8.5276515625e+04
    1.2149976566e-02    8.5242429688e+04
    1.2159992009e-02    8.5207984375e+04
    1.2169736437e-02    8.5175125000e+04
    1.2179751880e-02    8.5141203125e+04
    1.2189767323e-02    8.5107164062e+04
    1.2199782766e-02    8.5073835938e+04
    1.2209798209e-02    8.5040406250e+04
    1.2219813652e-02    8.5007203125e+04
    1.2229829095e-02    8.4974414062e+04
    1.2239844538e-02    8.4941718750e+04
    1.2249860913e-02    8.4908867188e+04
    1.2259877287e-02    8.4876718750e+04
    1.2269892730e-02    8.4844281250e+04
    1.2279909104e-02    8.4812281250e+04
    1.2289924547e-02    8.4780625000e+04
    1.2299940921e-02    8.4748851562e+04
    1.2309957296e-02    8.4717257812e+04
    1.2319973670e-02    8.4685890625e+04
    1.2329990044e-02    8.4654531250e+04
    1.2339736335e-02    8.4624359375e+04
    1.2349752709e-02    8.4593492188e+04
    1.2359769084e-02    8.4562867188e+04
    1.2369785458e-02    8.4532406250e+04
    1.2379802763e-02    8.4501976562e+04
    1.2389820069e-02    8.4471656250e+04
    1.2399837375e-02    8.4441718750e+04
    1.2409854680e-02    8.4411929688e+04
    1.2419871986e-02    8.4382265625e+04
    1.2429889292e-02    8.4352718750e+04
    1.2439906597e-02    8.4323390625e+04
    1.2449924834e-02    8.4294195312e+04
    1.2459943071e-02    8.4265359375e+04
    1.2469961308e-02    8.4236765625e+04
    1.2479979545e-02    8.4208414062e+04
    1.2489997782e-02    8.4180164062e+04
    1.2499745004e-02    8.4152625000e+04
    1.2509764172e-02    8.4124390625e+04
    1.2519783340e-02    8.4096343750e+04
    1.2529803440e-02    8.4068664062e+04
    1.2539822608e-02    8.4041226562e+04
    1.2549842708e-02    8.4013773438e+04
    1.2559861876e-02    8.3986414062e+04
    1.2569881976e-02    8.3959367188e+04
    1.2579901144e-02    8.3932460938e+04
    1.2589921243e-02    8.3905718750e+04
    1.2599941343e-02    8.3879101562e+04
    1.2609961443e-02    8.3852578125e+04
    1.2619982474e-02    8.3826406250e+04
    1.2629732490e-02    8.3801007812e+04
    1.2639753520e-02    8.3775039062e+04
    1.2649775483e-02    8.3749507812e+04
    1.2659796514e-02    8.3723929688e+04
    1.2669818476e-02    8.3698500000e+04
    1.2679840438e-02    8.3673382812e+04
    1.2689863332e-02    8.3648281250e+04
    1.2699885294e-02    8.3623507812e+04
    1.2709908187e-02    8.3598656250e+04
    1.2719930150e-02    8.3574101562e+04
    1.2729953043e-02    8.3549687500e+04
    1.2739975937e-02    8.3525484375e+04
    1.2749998830e-02    8.3501382812e+04
    1.2759751640e-02    8.3478101562e+04
    1.2769774534e-02    8.3454257812e+04
    1.2779797427e-02    8.3430570312e+04
    1.2789821252e-02    8.3407085938e+04
    1.2799846008e-02    8.3383781250e+04
    1.2809870765e-02    8.3360648438e+04
    1.2819895521e-02    8.3337796875e+04
    1.2829920277e-02    8.3315117188e+04
    1.2839945033e-02    8.3292648438e+04
    1.2849969789e-02    8.3270320312e+04
    1.2859994546e-02    8.3248117188e+04
    1.2869749218e-02    8.3226671875e+04
    1.2879773974e-02    8.3204750000e+04
    1.2889799662e-02    8.3182968750e+04
    1.2899826281e-02    8.3161507812e+04
    1.2909851968e-02    8.3140164062e+04
    1.2919878587e-02    8.3118765625e+04
    1.2929905206e-02    8.3097804688e+04
    1.2939931825e-02    8.3077054688e+04
    1.2949959375e-02    8.3056085938e+04
    1.2959985994e-02    8.3035593750e+04
    1.2969741598e-02    8.3015593750e+04
    1.2979769148e-02    8.2994765625e+04
    1.2989797629e-02    8.2974648438e+04
    1.2999825180e-02    8.2954445312e+04
    1.3009853661e-02    8.2934421875e+04
    1.3019881211e-02    8.2914796875e+04
    1.3029909693e-02    8.2895296875e+04
    1.3039939106e-02    8.2876125000e+04
    1.3049967587e-02    8.2857148438e+04
    1.3059997000e-02    8.2838171875e+04
    1.3069755398e-02    8.2819929688e+04
    1.3079784811e-02    8.2801390625e+04
    1.3089814223e-02    8.2782804688e+04
    1.3099843636e-02    8.2764070312e+04
    1.3109873980e-02    8.2745726562e+04
    1.3119905256e-02    8.2727648438e+04
    1.3129935600e-02    8.2709828125e+04
    1.3139965944e-02    8.2692210938e+04
    1.3149997219e-02    8.2674804688e+04
    1.3159756549e-02    8.2657921875e+04
    1.3169787824e-02    8.2640601562e+04
    1.3179820031e-02    8.2623492188e+04
    1.3189851306e-02    8.2606664062e+04
    1.3199883513e-02    8.2590062500e+04
    1.3209915720e-02    8.2573429688e+04
    1.3219947927e-02    8.2556921875e+04
    1.3229980133e-02    8.2540718750e+04
    1.3239742257e-02    8.2525015625e+04
    1.3249775395e-02    8.2508875000e+04
    1.3259808533e-02    8.2493125000e+04
    1.3269841671e-02    8.2477750000e+04
    1.3279874809e-02    8.2462328125e+04
    1.3289907947e-02    8.2447015625e+04
    1.3299942017e-02    8.2431984375e+04
    1.3309976086e-02    8.2417007812e+04
    1.3319739141e-02    8.2402632812e+04
    1.3329774141e-02    8.2387882812e+04
    1.3339808211e-02    8.2373265625e+04
    1.3349843211e-02    8.2358992188e+04
    1.3359877281e-02    8.2344625000e+04
    1.3369912282e-02    8.2330742188e+04
    1.3379948214e-02    8.2317000000e+04
    1.3389983214e-02    8.2303351562e+04
    1.3399747200e-02    8.2290343750e+04
    1.3409783132e-02    8.2277031250e+04
    1.3419819064e-02    8.2263804688e+04
    1.3429854997e-02    8.2250742188e+04
    1.3439890929e-02    8.2237921875e+04
    1.3449927792e-02    8.2225203125e+04
    1.3459963724e-02    8.2212648438e+04
    1.3469729573e-02    8.2200585938e+04
    1.3479766436e-02    8.2188250000e+04
    1.3489803299e-02    8.2176195312e+04
    1.3499840163e-02    8.2164515625e+04
    1.3509877026e-02    8.2153000000e+04
    1.3519914821e-02    8.2141500000e+04
    1.3529951684e-02    8.2130125000e+04
    1.3539989479e-02    8.2118726562e+04
    1.3549756259e-02    8.2107820312e+04
    1.3559794053e-02    8.2096914062e+04
    1.3569831848e-02    8.2086062500e+04
    1.3579870574e-02    8.2075234375e+04
    1.3589908369e-02    8.2064671875e+04
    1.3599947095e-02    8.2054351562e+04
    1.3609985821e-02    8.2044289062e+04
    1.3619753532e-02    8.2034867188e+04
    1.3629792258e-02    8.2025203125e+04
    1.3639830984e-02    8.2015289062e+04
    1.3649870642e-02    8.2005570312e+04
    1.3659910299e-02    8.1996437500e+04
    1.3669949025e-02    8.1987585938e+04
    1.3679988682e-02    8.1978648438e+04
    1.3689757325e-02    8.1969781250e+04
    1.3699796982e-02    8.1960789062e+04
    1.3709836639e-02    8.1951953125e+04
    1.3719877228e-02    8.1943132812e+04
    1.3729917817e-02    8.1934890625e+04
    1.3739957474e-02    8.1926734375e+04
    1.3749998063e-02    8.1918859375e+04
    1.3759767637e-02    8.1911554688e+04
    1.3769808225e-02    8.1903812500e+04
    1.3779848814e-02    8.1896226562e+04
    1.3789890334e-02    8.1888515625e+04
    1.3799930923e-02    8.1881171875e+04
    1.3809972443e-02    8.1873890625e+04
    1.3819742016e-02    8.1867156250e+04
    1.3829783536e-02    8.1860125000e+04
    1.3839825056e-02    8.1853476562e+04
    1.3849867508e-02    8.1846968750e+04
    1.3859909028e-02    8.1840671875e+04
    1.3869950548e-02    8.1834500000e+04
    1.3879992999e-02    8.1828382812e+04
    1.3889763504e-02    8.1822515625e+04
    1.3899805956e-02    8.1816718750e+04
    1.3909848407e-02    8.1811023438e+04
    1.3919890858e-02    8.1805585938e+04
    1.3929933310e-02    8.1800210938e+04
    1.3939975761e-02    8.1794898438e+04
    1.3949747197e-02    8.1789953125e+04
    1.3959790580e-02    8.1784968750e+04
    1.3969833031e-02    8.1780093750e+04
    1.3979876414e-02    8.1775281250e+04
    1.3989919797e-02    8.1770703125e+04
    1.3999962248e-02    8.1766343750e+04
    1.4009734616e-02    8.1762156250e+04
    1.4019777998e-02    8.1758234375e+04
    1.4029821381e-02    8.1754281250e+04
    1.4039864764e-02    8.1750242188e+04
    1.4049908146e-02    8.1746867188e+04
    1.4059951529e-02    8.1743492188e+04
    1.4069995843e-02    8.1739882812e+04
    1.4079768211e-02    8.1737007812e+04
    1.4089811593e-02    8.1734312500e+04
    1.4099855907e-02    8.1731078125e+04
    1.4109900221e-02    8.1728593750e+04
    1.4119944535e-02    8.1726554688e+04
    1.4129988849e-02    8.1723789062e+04
    1.4139761217e-02    8.1721968750e+04
    1.4149805531e-02    8.1719734375e+04
    1.4159849845e-02    8.1717640625e+04
    1.4169894159e-02    8.1716000000e+04
    1.4179938473e-02    8.1714312500e+04
    1.4189983718e-02    8.1712921875e+04
    1.4199757017e-02    8.1711367188e+04
    1.4209801331e-02    8.1710250000e+04
    1.4219845645e-02    8.1709492188e+04
    1.4229890890e-02    8.1709031250e+04
    1.4239935204e-02    8.1709015625e+04
    1.4249980450e-02    8.1709304688e+04
    1.4259753749e-02    8.1709687500e+04
    1.4269798063e-02    8.1710085938e+04
    1.4279843308e-02    8.1710664062e+04
    1.4289887622e-02    8.1711054688e+04
    1.4299932867e-02    8.1711171875e+04
    1.4309977181e-02    8.1711476562e+04
    1.4319751412e-02    8.1711835938e+04
    1.4329795726e-02    8.1711882812e+04
    1.4339840971e-02    8.1712304688e+04
    1.4349886216e-02    8.1713968750e+04
    1.4359930530e-02    8.1715726562e+04
    1.4369975775e-02    8.1717179688e+04
    1.4379749075e-02    8.1719843750e+04
    1.4389794320e-02    8.1722804688e+04
    1.4399839565e-02    8.1725085938e+04
    1.4409883879e-02    8.1728625000e+04
    1.4419929124e-02    8.1732570312e+04
    1.4429974370e-02    8.1735601562e+04
    1.4439747669e-02    8.1738828125e+04
    1.4449792914e-02    8.1742531250e+04
    1.4459837228e-02    8.1745796875e+04
    1.4469882473e-02    8.1749406250e+04
    1.4479927719e-02    8.1753921875e+04
    1.4489972033e-02    8.1758148438e+04
    1.4499745332e-02    8.1762453125e+04
    1.4509790577e-02    8.1767148438e+04
    1.4519835822e-02    8.1771820312e+04
    1.4529880136e-02    8.1777148438e+04
    1.4539925382e-02    8.1782679688e+04
    1.4549969696e-02    8.1788468750e+04
    1.4559742995e-02    8.1794304688e+04
    1.4569788240e-02    8.1800554688e+04
    1.4579833485e-02    8.1807296875e+04
    1.4589877799e-02    8.1814523438e+04
    1.4599923044e-02    8.1822179688e+04
    1.4609967358e-02    8.1830187500e+04
    1.4619740658e-02    8.1838273438e+04
    1.4629784971e-02    8.1846921875e+04
    1.4639830217e-02    8.1855882812e+04
    1.4649874531e-02    8.1865078125e+04
    1.4659919776e-02    8.1874375000e+04
    1.4669964090e-02    8.1883851562e+04
    1.4679737389e-02    8.1893257812e+04
    1.4689781703e-02    8.1902890625e+04
    1.4699826017e-02    8.1912492188e+04
    1.4709871262e-02    8.1922640625e+04
    1.4719915576e-02    8.1933234375e+04
    1.4729959890e-02    8.1943773438e+04
    1.4739733189e-02    8.1954718750e+04
    1.4749777503e-02    8.1966968750e+04
    1.4759821817e-02    8.1978953125e+04
    1.4769866131e-02    8.1991117188e+04
    1.4779911377e-02    8.2004632812e+04
    1.4789955691e-02    8.2018406250e+04
    1.4799728990e-02    8.2031625000e+04
    1.4809773304e-02    8.2045726562e+04
    1.4819818549e-02    8.2060195312e+04
    1.4829862863e-02    8.2074593750e+04
    1.4839907177e-02    8.2089281250e+04
    1.4849952422e-02    8.2104429688e+04
    1.4859998599e-02    8.2119765625e+04
    1.4869772829e-02    8.2135132812e+04
    1.4879818074e-02    8.2151398438e+04
    1.4889865182e-02    8.2168078125e+04
    1.4899911359e-02    8.2185257812e+04
    1.4909957536e-02    8.2202914062e+04
    1.4919732697e-02    8.2220476562e+04
    1.4929779805e-02    8.2238851562e+04
    1.4939827845e-02    8.2257515625e+04
    1.4949874952e-02    8.2276421875e+04
    1.4959922060e-02    8.2295625000e+04
    1.4969971031e-02    8.2315093750e+04
    1.4979748055e-02    8.2334406250e+04
    1.4989797026e-02    8.2354640625e+04
    1.4999846928e-02    8.2375304688e+04
    1.5009895898e-02    8.2396367188e+04
    1.5019945800e-02    8.2417812500e+04
    1.5029996634e-02    8.2439687500e+04
    1.5039775521e-02    8.2461453125e+04
    1.5049827285e-02    8.2484132812e+04
    1.5059879050e-02    8.2506796875e+04
    1.5069929883e-02    8.2529632812e+04
    1.5079982579e-02    8.2553117188e+04
    1.5089764260e-02    8.2576359375e+04
    1.5099817887e-02    8.2600281250e+04
    1.5109870583e-02    8.2624796875e+04
    1.5119924210e-02    8.2650000000e+04
    1.5129978769e-02    8.2675179688e+04
    1.5139762312e-02    8.2700101562e+04
    1.5149818733e-02    8.2726617188e+04
    1.5159876086e-02    8.2753171875e+04
    1.5169933438e-02    8.2779593750e+04
    1.5179990791e-02    8.2806578125e+04
    1.5189777128e-02    8.2833218750e+04
    1.5199836344e-02    8.2860773438e+04
    1.5209894627e-02    8.2888929688e+04
    1.5219951980e-02    8.2917726562e+04
    1.5229740180e-02    8.2946265625e+04
    1.5239800327e-02    8.2976265625e+04
    1.5249860473e-02    8.3006859375e+04
    1.5259921551e-02    8.3037921875e+04
    1.5269982629e-02    8.3069312500e+04
    1.5279773623e-02    8.3100039062e+04
    1.5289837494e-02    8.3131625000e+04
    1.5299902298e-02    8.3163140625e+04
    1.5309967101e-02    8.3194593750e+04
    1.5319760889e-02    8.3225257812e+04
    1.5329825692e-02    8.3257007812e+04
    1.5339893289e-02    8.3289101562e+04
    1.5349962749e-02    8.3321632812e+04
    1.5359758399e-02    8.3353734375e+04
    1.5369826928e-02    8.3387250000e+04
    1.5379896387e-02    8.3421328125e+04
    1.5389966778e-02    8.3455992188e+04
    1.5399768017e-02    8.3490273438e+04
    1.5409841202e-02    8.3526093750e+04
    1.5419913456e-02    8.3562359375e+04
    1.5429988503e-02    8.3598906250e+04
    1.5439793468e-02    8.3634781250e+04
    1.5449872240e-02    8.3672257812e+04
    1.5459953807e-02    8.3710218750e+04
    1.5469760634e-02    8.3747359375e+04
    1.5479841270e-02    8.3785945312e+04
    1.5489924699e-02    8.3825031250e+04
    1.5499738976e-02    8.3863179688e+04
    1.5509825200e-02    8.3902679688e+04
    1.5519911423e-02    8.3942835938e+04
    1.5529996715e-02    8.3983210938e+04
    1.5539811924e-02    8.4022554688e+04
    1.5549903736e-02    8.4063546875e+04
    1.5559997410e-02    8.4105046875e+04
    1.5569817275e-02    8.4145656250e+04
    1.5579911880e-02    8.4187851562e+04
    1.5589734539e-02    8.4229359375e+04
    1.5599833801e-02    8.4272359375e+04
    1.5609936789e-02    8.4315781250e+04
    1.5619765967e-02    8.4358414062e+04
    1.5629867092e-02    8.4402648438e+04
    1.5639971942e-02    8.4447375000e+04
    1.5649806708e-02    8.4491367188e+04
    1.5659917146e-02    8.4537000000e+04
    1.5669755638e-02    8.4581703125e+04
    1.5679864213e-02    8.4627890625e+04
    1.5689976513e-02    8.4674351562e+04
    1.5699822456e-02    8.4719906250e+04
    1.5709942207e-02    8.4767132812e+04
    1.5719790012e-02    8.4813507812e+04
    1.5729911625e-02    8.4861648438e+04
    1.5739755705e-02    8.4909031250e+04
    1.5749881044e-02    8.4958421875e+04
    1.5759738162e-02    8.5007250000e+04
    1.5769869089e-02    8.5058281250e+04
    1.5779726207e-02    8.5108882812e+04
    1.5789858997e-02    8.5161867188e+04
    1.5799991786e-02    8.5215710938e+04
    1.5809856355e-02    8.5268921875e+04
    1.5819998458e-02    8.5324570312e+04
    1.5829863027e-02    8.5379570312e+04
    1.5839733183e-02    8.5435218750e+04
    1.5849879012e-02    8.5493195312e+04
    1.5859752893e-02    8.5550437500e+04
    1.5869906172e-02    8.5609835938e+04
    1.5879783779e-02    8.5668023438e+04
    1.5889933333e-02    8.5728570312e+04
    1.5899816528e-02    8.5788210938e+04
    1.5909979120e-02    8.5849945312e+04
    1.5919867903e-02    8.5910625000e+04
    1.5929758549e-02    8.5972132812e+04
    1.5939919278e-02    8.6036007812e+04
    1.5949806198e-02    8.6098843750e+04
    1.5959978104e-02    8.6164398438e+04
    1.5969878063e-02    8.6229007812e+04
    1.5979779884e-02    8.6294281250e+04
    1.5989959240e-02    8.6361976562e+04
    1.5999859199e-02    8.6428320312e+04
    1.6009761021e-02    8.6496171875e+04
    1.6019944102e-02    8.6593046875e+04
    1.6029857099e-02    8.7198429688e+04
    1.6039771959e-02    9.2512101562e+04
    1.6049964353e-02    9.6675414062e+04
    1.6059881076e-02    9.6206476562e+04
    1.6069795936e-02    9.6070218750e+04
    1.6079990193e-02    9.6210992188e+04
    1.6089910641e-02    9.6099601562e+04
    1.6099834815e-02    9.6038835938e+04
    1.6109764576e-02    9.6025687500e+04
    1.6119971871e-02    9.5964804688e+04
    1.6129905358e-02    9.5903101562e+04
    1.6139838845e-02    9.5875101562e+04
    1.6149770468e-02    9.5832257812e+04
    1.6159979627e-02    9.5772710938e+04
    1.6169922426e-02    9.5732039062e+04
    1.6179870814e-02    9.5703500000e+04
    1.6189817339e-02    9.5652875000e+04
    1.6199767590e-02    9.5605585938e+04
    1.6209991649e-02    9.5571695312e+04
    1.6219941899e-02    9.5537187500e+04
    1.6229897738e-02    9.5494367188e+04
    1.6239859164e-02    9.5451664062e+04
    1.6249820590e-02    9.5419507812e+04
    1.6259783879e-02    9.5388335938e+04
    1.6269745305e-02    9.5349085938e+04
    1.6279986128e-02    9.5310125000e+04
    1.6289956868e-02    9.5278601562e+04
    1.6299929470e-02    9.5248132812e+04
    1.6309905797e-02    9.5215843750e+04
    1.6319885850e-02    9.5182960938e+04
    1.6329864040e-02    9.5150789062e+04
    1.6339844093e-02    9.5120242188e+04
    1.6349826008e-02    9.5092593750e+04
    1.6359807923e-02    9.5065226562e+04
    1.6369797289e-02    9.5036039062e+04
    1.6379790381e-02    9.5006656250e+04
    1.6389787197e-02    9.4979601562e+04
    1.6399784014e-02    9.4954585938e+04
    1.6409778967e-02    9.4929445312e+04
    1.6419775784e-02    9.4904351562e+04
    1.6429772601e-02    9.4879742188e+04
    1.6439776868e-02    9.4855757812e+04
    1.6449784860e-02    9.4832351562e+04
    1.6459794715e-02    9.4809625000e+04
    1.6469806433e-02    9.4788023438e+04
    1.6479816288e-02    9.4767367188e+04
    1.6489829868e-02    9.4747148438e+04
    1.6499845311e-02    9.4727226562e+04
    1.6509864479e-02    9.4708125000e+04
    1.6519889235e-02    9.4689093750e+04
    1.6529917717e-02    9.4670148438e+04
    1.6539944336e-02    9.4652851562e+04
    1.6549974680e-02    9.4634601562e+04
    1.6559731215e-02    9.4618929688e+04
    1.6569770873e-02    9.4602601562e+04
    1.6579812393e-02    9.4586648438e+04
    1.6589859501e-02    9.4571757812e+04
    1.6599904746e-02    9.4557210938e+04
    1.6609951854e-02    9.4543156250e+04
    1.6619723290e-02    9.4530101562e+04
    1.6629777849e-02    9.4517437500e+04
    1.6639834270e-02    9.4505195312e+04
    1.6649898142e-02    9.4493406250e+04
    1.6659962013e-02    9.4482218750e+04
    1.6669746488e-02    9.4471867188e+04
    1.6679812223e-02    9.4461570312e+04
    1.6689877957e-02    9.4451773438e+04
    1.6699947417e-02    9.4442757812e+04
    1.6709744930e-02    9.4434539062e+04
    1.6719823703e-02    9.4426476562e+04
    1.6729906201e-02    9.4418820312e+04
    1.6739988700e-02    9.4411710938e+04
    1.6749791801e-02    9.4405335938e+04
    1.6759876162e-02    9.4399335938e+04
    1.6769964248e-02    9.4393976562e+04
    1.6779772937e-02    9.4389273438e+04
    1.6789864749e-02    9.4384914062e+04
    1.6799958423e-02    9.4381007812e+04
    1.6809772700e-02    9.4377648438e+04
    1.6819870099e-02    9.4374601562e+04
    1.6829969361e-02    9.4372039062e+04
    1.6839787364e-02    9.4370218750e+04
    1.6849888489e-02    9.4368945312e+04
    1.6859995201e-02    9.4368039062e+04
    1.6869824380e-02    9.4368195312e+04
    1.6879932955e-02    9.4368398438e+04
    1.6889762133e-02    9.4369460938e+04
    1.6899870709e-02    9.4370562500e+04
    1.6909975559e-02    9.4372218750e+04
    1.6919795424e-02    9.4374679688e+04
    1.6929889098e-02    9.4377117188e+04
    1.6939977184e-02    9.4380554688e+04
    1.6949780285e-02    9.4384148438e+04
    1.6959857196e-02    9.4388156250e+04
    1.6969937831e-02    9.4392742188e+04
    1.6979873180e-02    9.4397726562e+04
    1.6989985481e-02    9.4403289062e+04
    1.6999972984e-02    9.4409289062e+04
    1.7009824514e-02    9.4415726562e+04
    1.7019826919e-02    9.4422710938e+04
    1.7029982060e-02    9.4430039062e+04
    1.7039969563e-02    9.4437617188e+04
    1.7049783841e-02    9.4445710938e+04
    1.7059730366e-02    9.4454476562e+04
    1.7069811001e-02    9.4463851562e+04
    1.7079686746e-02    9.4473601562e+04
    1.7089687288e-02    9.4483914062e+04
    1.7099812627e-02    9.4494476562e+04
    1.7109718174e-02    9.4504835938e+04
    1.7119735479e-02    9.4515414062e+04
    1.7129860818e-02    9.4526335938e+04
    1.7139751464e-02    9.4537289062e+04
    1.7149746418e-02    9.4548867188e+04
    1.7159830779e-02    9.4561148438e+04
    1.7169656232e-02    9.4573726562e+04
    1.7179939896e-02    9.4587500000e+04
    1.7189951614e-02    9.4601226562e+04
    1.7199659720e-02    9.4614718750e+04
    1.7209816724e-02    9.4628789062e+04
    1.7219651490e-02    9.4642289062e+04
    1.7229873687e-02    9.4656281250e+04
    1.7239840701e-02    9.4669539062e+04
    1.7249748111e-02    9.4682585938e+04
    1.7259916291e-02    9.4695898438e+04
    1.7269846052e-02    9.4708937500e+04
    1.7279790714e-02    9.4721960938e+04
    1.7289750278e-02    9.4735031250e+04
    1.7299979925e-02    9.4748320312e+04
    1.7309958115e-02    9.4761218750e+04
    1.7319951206e-02    9.4774031250e+04
    1.7329951748e-02    9.4786687500e+04
    1.7339957878e-02    9.4799117188e+04
    1.7349964008e-02    9.4811289062e+04
    1.7359972000e-02    9.4823289062e+04
    1.7369981855e-02    9.4835164062e+04
    1.7379991710e-02    9.4846945312e+04
    1.7389740795e-02    9.4858414062e+04
    1.7399752513e-02    9.4870351562e+04
    1.7409764230e-02    9.4882398438e+04
    1.7419777811e-02    9.4894437500e+04
    1.7429789528e-02    9.4906492188e+04
    1.7439803109e-02    9.4918460938e+04
    1.7449814826e-02    9.4929937500e+04
    1.7459828407e-02    9.4940507812e+04
    1.7469840124e-02    9.4949851562e+04
    1.7479853705e-02    9.4957710938e+04
    1.7489865422e-02    9.4963945312e+04
    1.7499877140e-02    9.4968773438e+04
    1.7509888858e-02    9.4972750000e+04
    1.7519900575e-02    9.4976585938e+04
    1.7529912293e-02    9.4980945312e+04
    1.7539924011e-02    9.4986218750e+04
    1.7549935728e-02    9.4992492188e+04
    1.7559945583e-02    9.4999468750e+04
    1.7569957301e-02    9.5006718750e+04
    1.7579967156e-02    9.5013812500e+04
    1.7589977011e-02    9.5020523438e+04
    1.7599988729e-02    9.5026882812e+04
    1.7609998584e-02    9.5033085938e+04
    1.7619743943e-02    9.5039101562e+04
    1.7629753798e-02    9.5045429688e+04
    1.7639763653e-02    9.5051835938e+04
    1.7649771646e-02    9.5058289062e+04
    1.7659781501e-02    9.5064710938e+04
    1.7669789493e-02    9.5070992188e+04
    1.7679797485e-02    9.5077195312e+04
    1.7689805478e-02    9.5083375000e+04
    1.7699813470e-02    9.5089632812e+04
    1.7709821463e-02    9.5095992188e+04
    1.7719829455e-02    9.5102414062e+04
    1.7729837447e-02    9.5108789062e+04
    1.7739845440e-02    9.5115132812e+04
    1.7749855295e-02    9.5121476562e+04
    1.7759863287e-02    9.5127835938e+04
    1.7769875005e-02    9.5134164062e+04
    1.7779884860e-02    9.5140523438e+04
    1.7789896578e-02    9.5146914062e+04
    1.7799908295e-02    9.5153320312e+04
    1.7809921876e-02    9.5159687500e+04
    1.7819937319e-02    9.5166093750e+04
    1.7829960212e-02    9.5172554688e+04
    1.7839990556e-02    9.5179007812e+04
    1.7849758267e-02    9.5185273438e+04
    1.7859794199e-02    9.5191773438e+04
    1.7869833857e-02    9.5198320312e+04
    1.7879877239e-02    9.5204851562e+04
    1.7889928073e-02    9.5211398438e+04
    1.7899997532e-02    9.5217976562e+04
    1.7909821123e-02    9.5224429688e+04
    1.7919916660e-02    9.5231039062e+04
    1.7929753289e-02    9.5237500000e+04
    1.7939865589e-02    9.5244132812e+04
    1.7949985340e-02    9.5250781250e+04
    1.7959861085e-02    9.5257320312e+04
    1.7969762906e-02    9.5263914062e+04
    1.7979953438e-02    9.5270718750e+04
    1.7989881337e-02    9.5277335938e+04
    1.7999822274e-02    9.5283929688e+04
    1.8009785563e-02    9.5290523438e+04
    1.8019763753e-02    9.5297101562e+04
    1.8029754981e-02    9.5303742188e+04
    1.8039772287e-02    9.5310414062e+04
    1.8049806356e-02    9.5317125000e+04
    1.8059847876e-02    9.5323835938e+04
    1.8069908023e-02    9.5330539062e+04
    1.8079992384e-02    9.5337273438e+04
    1.8089821562e-02    9.5343812500e+04
    1.8099926412e-02    9.5350523438e+04
    1.8109770492e-02    9.5356992188e+04
    1.8119903281e-02    9.5363617188e+04
    1.8129775301e-02    9.5370070312e+04
    1.8139945343e-02    9.5376773438e+04
    1.8149862066e-02    9.5383312500e+04
    1.8159791827e-02    9.5389843750e+04
    1.8169725314e-02    9.5396343750e+04
    1.8179938197e-02    9.5403023438e+04
    1.8189880997e-02    9.5409468750e+04
    1.8199831247e-02    9.5415875000e+04
    1.8209796399e-02    9.5422312500e+04
    1.8219780177e-02    9.5428757812e+04
    1.8229778856e-02    9.5435132812e+04
    1.8239781260e-02    9.5441414062e+04
    1.8249787390e-02    9.5447632812e+04
    1.8259797245e-02    9.5453773438e+04
    1.8269810826e-02    9.5459835938e+04
    1.8279831856e-02    9.5465898438e+04
    1.8289860338e-02    9.5472007812e+04
    1.8299896270e-02    9.5478210938e+04
    1.8309943378e-02    9.5484414062e+04
    1.8319996074e-02    9.5490601562e+04
    1.8329774961e-02    9.5496539062e+04
    1.8339835107e-02    9.5502539062e+04
    1.8349897116e-02    9.5508445312e+04
    1.8359962851e-02    9.5514289062e+04
    1.8369754776e-02    9.5519898438e+04
    1.8379837275e-02    9.5525585938e+04
    1.8389923498e-02    9.5531148438e+04
    1.8399734050e-02    9.5536523438e+04
    1.8409825861e-02    9.5542000000e+04
    1.8419921398e-02    9.5547437500e+04
    1.8429737538e-02    9.5552695312e+04
    1.8439836800e-02    9.5558085938e+04
    1.8449936062e-02    9.5563445312e+04
    1.8459755927e-02    9.5568648438e+04
    1.8469857052e-02    9.5573968750e+04
    1.8479958177e-02    9.5579273438e+04
    1.8489778042e-02    9.5584382812e+04
    1.8499877304e-02    9.5589562500e+04
    1.8509978428e-02    9.5594648438e+04
    1.8519800156e-02    9.5599468750e+04
    1.8529903144e-02    9.5604335938e+04
    1.8539726734e-02    9.5608976562e+04
    1.8549829721e-02    9.5613679688e+04
    1.8559934571e-02    9.5618351562e+04
    1.8569760025e-02    9.5622898438e+04
    1.8579864874e-02    9.5627539062e+04
    1.8589973450e-02    9.5632148438e+04
    1.8599800766e-02    9.5636570312e+04
    1.8609909341e-02    9.5641054688e+04
    1.8619738519e-02    9.5645335938e+04
    1.8629848957e-02    9.5649664062e+04
    1.8639961258e-02    9.5653945312e+04
    1.8649794161e-02    9.5658054688e+04
    1.8659908324e-02    9.5662210938e+04
    1.8669741228e-02    9.5666195312e+04
    1.8679857254e-02    9.5670250000e+04
    1.8689975142e-02    9.5674242188e+04
    1.8699811772e-02    9.5678039062e+04
    1.8709931523e-02    9.5681851562e+04
    1.8719770014e-02    9.5685476562e+04
    1.8729889765e-02    9.5689125000e+04
    1.8739731982e-02    9.5692625000e+04
    1.8749853596e-02    9.5696156250e+04
    1.8759978935e-02    9.5699617188e+04
    1.8769821152e-02    9.5702898438e+04
    1.8779946491e-02    9.5706210938e+04
    1.8789790571e-02    9.5709351562e+04
    1.8799917772e-02    9.5712539062e+04
    1.8809763715e-02    9.5715562500e+04
    1.8819890916e-02    9.5718593750e+04
    1.8829738721e-02    9.5721460938e+04
    1.8839867786e-02    9.5724320312e+04
    1.8849998713e-02    9.5727101562e+04
    1.8859846517e-02    9.5729757812e+04
    1.8869977444e-02    9.5732437500e+04
    1.8879827112e-02    9.5734976562e+04
    1.8889958039e-02    9.5737523438e+04
    1.8899807706e-02    9.5739898438e+04
    1.8909940496e-02    9.5742250000e+04
    1.8919792026e-02    9.5744468750e+04
    1.8929922953e-02    9.5746656250e+04
    1.8939774483e-02    9.5748710938e+04
    1.8949907273e-02    9.5750742188e+04
    1.8959758803e-02    9.5752664062e+04
    1.8969893456e-02    9.5754539062e+04
    1.8979744986e-02    9.5756273438e+04
    1.8989879638e-02    9.5758000000e+04
    1.8999731168e-02    9.5759648438e+04
    1.9009865820e-02    9.5761273438e+04
    1.9019998610e-02    9.5762812500e+04
    1.9029852003e-02    9.5764242188e+04
    1.9039986655e-02    9.5765632812e+04
    1.9049838185e-02    9.5766898438e+04
    1.9059972838e-02    9.5768125000e+04
    1.9069826230e-02    9.5769273438e+04
    1.9079960883e-02    9.5770398438e+04
    1.9089814276e-02    9.5771414062e+04
    1.9099948928e-02    9.5772398438e+04
    1.9109802321e-02    9.5773273438e+04
    1.9119936973e-02    9.5774125000e+04
    1.9129790366e-02    9.5774898438e+04
    1.9139925018e-02    9.5775648438e+04
    1.9149778411e-02    9.5776281250e+04
    1.9159913063e-02    9.5776851562e+04
    1.9169766456e-02    9.5777335938e+04
    1.9179901108e-02    9.5777757812e+04
    1.9189754501e-02    9.5778132812e+04
    1.9199891016e-02    9.5778476562e+04
    1.9209744409e-02    9.5778781250e+04
    1.9219880924e-02    9.5779023438e+04
    1.9229734316e-02    9.5779179688e+04
    1.9239868969e-02    9.5779273438e+04
    1.9249724224e-02    9.5779273438e+04
    1.9259858876e-02    9.5779218750e+04
    1.9269995391e-02    9.5779125000e+04
    1.9279848784e-02    9.5778976562e+04
    1.9289985299e-02    9.5778773438e+04
    1.9299840555e-02    9.5778476562e+04
    1.9309977069e-02    9.5778117188e+04
    1.9319832325e-02    9.5777710938e+04
    1.9329968840e-02    9.5777218750e+04
    1.9339824095e-02    9.5776710938e+04
    1.9349960610e-02    9.5776101562e+04
    1.9359815866e-02    9.5775460938e+04
    1.9369954243e-02    9.5774710938e+04
    1.9379809499e-02    9.5773929688e+04
    1.9389947876e-02    9.5773093750e+04
    1.9399803132e-02    9.5772250000e+04
    1.9409941509e-02    9.5771335938e+04
    1.9419796765e-02    9.5770398438e+04
    1.9429935142e-02    9.5769343750e+04
    1.9439792261e-02    9.5768257812e+04
[...]
    1.1513997614e-01    1.0121325000e+05
    1.1514988542e-01    1.0121325000e+05
    1.1515979469e-01    1.0121324219e+05
    1.1516970396e-01    1.0121324219e+05
    1.1517992616e-01    1.0121322656e+05
    1.1518983543e-01    1.0121322656e+05
    1.1519975215e-01    1.0121322656e+05
    1.1520997435e-01    1.0121322656e+05
    1.1521988362e-01    1.0121322656e+05
    1.1522979289e-01    1.0121321875e+05
    1.1523970217e-01    1.0121321875e+05
    1.1524992436e-01    1.0121321094e+05
    1.1525984108e-01    1.0121321094e+05
    1.1526975036e-01    1.0121321094e+05
    1.1527997255e-01    1.0121321094e+05
    1.1528988183e-01    1.0121319531e+05
    1.1529979110e-01    1.0121319531e+05
    1.1530970782e-01    1.0121319531e+05
    1.1531992257e-01    1.0121318750e+05
    1.1532983929e-01    1.0121318750e+05
    1.1533974856e-01    1.0121317969e+05
    1.1534997076e-01    1.0121317969e+05
    1.1535988003e-01    1.0121317969e+05
    1.1536978930e-01    1.0121316406e+05
    1.1537970603e-01    1.0121316406e+05
    1.1538992822e-01    1.0121316406e+05
    1.1539983749e-01    1.0121316406e+05
    1.1540974677e-01    1.0121315625e+05
    1.1541996896e-01    1.0121315625e+05
    1.1542987823e-01    1.0121314844e+05
    1.1543979496e-01    1.0121314844e+05
    1.1544970423e-01    1.0121314844e+05
    1.1545992643e-01    1.0121314844e+05
    1.1546983570e-01    1.0121314844e+05
    1.1547974497e-01    1.0121313281e+05
    1.1548996717e-01    1.0121313281e+05
    1.1549987644e-01    1.0121312500e+05
    1.1550979316e-01    1.0121312500e+05
    1.1551970243e-01    1.0121312500e+05
    1.1552992463e-01    1.0121311719e+05
    1.1553983390e-01    1.0121311719e+05
    1.1554974318e-01    1.0121310156e+05
    1.1555996537e-01    1.0121310156e+05
    1.1556988209e-01    1.0121310156e+05
    1.1557979137e-01    1.0121310156e+05
    1.1558970064e-01    1.0121310156e+05
    1.1559992284e-01    1.0121309375e+05
    1.1560983211e-01    1.0121309375e+05
    1.1561974883e-01    1.0121308594e+05
    1.1562996358e-01    1.0121308594e+05
    1.1563988030e-01    1.0121308594e+05
    1.1564978957e-01    1.0121308594e+05
    1.1565969884e-01    1.0121308594e+05
    1.1566992104e-01    1.0121307031e+05
    1.1567983031e-01    1.0121307031e+05
    1.1568974704e-01    1.0121306250e+05
    1.1569996923e-01    1.0121306250e+05
    1.1570987850e-01    1.0121305469e+05
    1.1571978778e-01    1.0121305469e+05
    1.1572969705e-01    1.0121303906e+05
    1.1573991925e-01    1.0121303906e+05
    1.1574983597e-01    1.0121303906e+05
    1.1575974524e-01    1.0121303906e+05
    1.1576996744e-01    1.0121303906e+05
    1.1577987671e-01    1.0121303125e+05
    1.1578978598e-01    1.0121303125e+05
    1.1579970270e-01    1.0121302344e+05
    1.1580991745e-01    1.0121302344e+05
    1.1581983417e-01    1.0121302344e+05
    1.1582974344e-01    1.0121302344e+05
    1.1583996564e-01    1.0121302344e+05
    1.1584987491e-01    1.0121300781e+05
    1.1585978419e-01    1.0121300781e+05
    1.1586970091e-01    1.0121300781e+05
    1.1587992311e-01    1.0121300000e+05
    1.1588983238e-01    1.0121300000e+05
    1.1589974165e-01    1.0121299219e+05
    1.1590996385e-01    1.0121299219e+05
    1.1591987312e-01    1.0121297656e+05
    1.1592978984e-01    1.0121297656e+05
    1.1593969911e-01    1.0121297656e+05
    1.1594992131e-01    1.0121297656e+05
    1.1595983058e-01    1.0121296875e+05
    1.1596973985e-01    1.0121296875e+05
    1.1597996205e-01    1.0121296094e+05
    1.1598987132e-01    1.0121296094e+05
    1.1599978805e-01    1.0121296094e+05
    1.1600969732e-01    1.0121296094e+05
    1.1601991951e-01    1.0121296094e+05
    1.1602982879e-01    1.0121296094e+05
    1.1603973806e-01    1.0121294531e+05
    1.1604996026e-01    1.0121294531e+05
    1.1605987698e-01    1.0121293750e+05
    1.1606978625e-01    1.0121293750e+05
    1.1607969552e-01    1.0121292969e+05
    1.1608991772e-01    1.0121292969e+05
    1.1609982699e-01    1.0121291406e+05
    1.1610974371e-01    1.0121291406e+05
    1.1611995846e-01    1.0121291406e+05
    1.1612987518e-01    1.0121291406e+05
    1.1613978446e-01    1.0121291406e+05
    1.1614969373e-01    1.0121290625e+05
    1.1615991592e-01    1.0121290625e+05
    1.1616982520e-01    1.0121290625e+05
    1.1617974192e-01    1.0121289844e+05
    1.1618996412e-01    1.0121289844e+05
    1.1619987339e-01    1.0121289844e+05
    1.1620978266e-01    1.0121289844e+05
    1.1621969193e-01    1.0121289844e+05
    1.1622991413e-01    1.0121289844e+05
    1.1623983085e-01    1.0121288281e+05
    1.1624974012e-01    1.0121287500e+05
    1.1625996232e-01    1.0121287500e+05
    1.1626987159e-01    1.0121286719e+05
    1.1627978086e-01    1.0121286719e+05
    1.1628969759e-01    1.0121285156e+05
    1.1629991233e-01    1.0121285156e+05
    1.1630982906e-01    1.0121285156e+05
    1.1631973833e-01    1.0121285156e+05
    1.1632996053e-01    1.0121285156e+05
    1.1633986980e-01    1.0121284375e+05
    1.1634978652e-01    1.0121284375e+05
    1.1635969579e-01    1.0121283594e+05
    1.1636991799e-01    1.0121283594e+05
    1.1637982726e-01    1.0121283594e+05
    1.1638973653e-01    1.0121283594e+05
    1.1639995873e-01    1.0121283594e+05
    1.1640986800e-01    1.0121282031e+05
    1.1641978472e-01    1.0121282031e+05
    1.1642969400e-01    1.0121282031e+05
    1.1643991619e-01    1.0121281250e+05
    1.1644982547e-01    1.0121281250e+05
    1.1645973474e-01    1.0121281250e+05
    1.1646995693e-01    1.0121280469e+05
    1.1647987366e-01    1.0121280469e+05
    1.1648978293e-01    1.0121280469e+05
    1.1649969220e-01    1.0121278906e+05
    1.1650991440e-01    1.0121278906e+05
    1.1651982367e-01    1.0121278906e+05
    1.1652974039e-01    1.0121278906e+05
    1.1653995514e-01    1.0121278125e+05
    1.1654987186e-01    1.0121278125e+05
    1.1655978113e-01    1.0121277344e+05
    1.1656969041e-01    1.0121277344e+05
    1.1657991260e-01    1.0121277344e+05
    1.1658982188e-01    1.0121277344e+05
    1.1659973860e-01    1.0121277344e+05
    1.1660996079e-01    1.0121275781e+05
    1.1661987007e-01    1.0121275781e+05
    1.1662977934e-01    1.0121275000e+05
    1.1663968861e-01    1.0121275000e+05
    1.1664991081e-01    1.0121274219e+05
    1.1665982753e-01    1.0121274219e+05
    1.1666973680e-01    1.0121274219e+05
    1.1667995900e-01    1.0121272656e+05
    1.1668986827e-01    1.0121272656e+05
    1.1669977754e-01    1.0121272656e+05
    1.1670969427e-01    1.0121272656e+05
    1.1671990901e-01    1.0121272656e+05
    1.1672982574e-01    1.0121272656e+05
    1.1673973501e-01    1.0121272656e+05
    1.1674995720e-01    1.0121271875e+05
    1.1675986648e-01    1.0121271875e+05
    1.1676977575e-01    1.0121271875e+05
    1.1677969247e-01    1.0121271094e+05
    1.1678991467e-01    1.0121271094e+05
    1.1679982394e-01    1.0121271094e+05
    1.1680973321e-01    1.0121271094e+05
    1.1681995541e-01    1.0121269531e+05
    1.1682986468e-01    1.0121269531e+05
    1.1683978140e-01    1.0121268750e+05
    1.1684969068e-01    1.0121267969e+05
    1.1685991287e-01    1.0121267969e+05
    1.1686982214e-01    1.0121266406e+05
    1.1687973142e-01    1.0121266406e+05
    1.1688995361e-01    1.0121266406e+05
    1.1689987034e-01    1.0121266406e+05
    1.1690977961e-01    1.0121265625e+05
    1.1692000180e-01    1.0121265625e+05
    1.1692991108e-01    1.0121265625e+05
    1.1693982035e-01    1.0121264844e+05
    1.1694973707e-01    1.0121264844e+05
    1.1695995182e-01    1.0121264844e+05
    1.1696986854e-01    1.0121264844e+05
    1.1697977781e-01    1.0121263281e+05
    1.1699000001e-01    1.0121262500e+05
    1.1699990928e-01    1.0121261719e+05
    1.1700981855e-01    1.0121261719e+05
    1.1701973528e-01    1.0121260156e+05
    1.1702995747e-01    1.0121260156e+05
    1.1703986675e-01    1.0121260156e+05
    1.1704977602e-01    1.0121260156e+05
    1.1705999821e-01    1.0121260156e+05
    1.1706990749e-01    1.0121260156e+05
    1.1707982421e-01    1.0121260156e+05
    1.1708973348e-01    1.0121260156e+05
    1.1709995568e-01    1.0121260156e+05
    1.1710986495e-01    1.0121260156e+05
    1.1711977422e-01    1.0121260156e+05
    1.1712999642e-01    1.0121260156e+05
    1.1713990569e-01    1.0121260156e+05
    1.1714982241e-01    1.0121260156e+05
    1.1715973169e-01    1.0121259375e+05
    1.1716995388e-01    1.0121258594e+05
    1.1717986315e-01    1.0121257031e+05
    1.1718977243e-01    1.0121256250e+05
    1.1719999462e-01    1.0121255469e+05
    1.1720991135e-01    1.0121255469e+05
    1.1721982062e-01    1.0121255469e+05
    1.1722972989e-01    1.0121255469e+05
    1.1723995209e-01    1.0121255469e+05
    1.1724986136e-01    1.0121255469e+05
    1.1725977808e-01    1.0121255469e+05
    1.1727000028e-01    1.0121255469e+05
    1.1727990955e-01    1.0121253906e+05
    1.1728981882e-01    1.0121253906e+05
    1.1729972810e-01    1.0121253125e+05
    1.1730995029e-01    1.0121252344e+05
    1.1731986701e-01    1.0121250781e+05
    1.1732977629e-01    1.0121250000e+05
    1.1733999848e-01    1.0121249219e+05
    1.1734990776e-01    1.0121249219e+05
    1.1735981703e-01    1.0121249219e+05
    1.1736973375e-01    1.0121250000e+05
    1.1737994850e-01    1.0121250000e+05
    1.1738986522e-01    1.0121250781e+05
    1.1739977449e-01    1.0121250781e+05
    1.1740999669e-01    1.0121250781e+05
    1.1741990596e-01    1.0121250000e+05
    1.1742981523e-01    1.0121249219e+05
    1.1743973196e-01    1.0121249219e+05
    1.1744995415e-01    1.0121247656e+05
    1.1745986342e-01    1.0121247656e+05
    1.1746977270e-01    1.0121247656e+05
    1.1747999489e-01    1.0121247656e+05
    1.1748990417e-01    1.0121247656e+05
    1.1749982089e-01    1.0121247656e+05
    1.1750973016e-01    1.0121246875e+05
    1.1751995236e-01    1.0121246875e+05
    1.1752986163e-01    1.0121246875e+05
    1.1753977090e-01    1.0121246875e+05
    1.1754999310e-01    1.0121246875e+05
    1.1755990237e-01    1.0121246875e+05
    1.1756981909e-01    1.0121246094e+05
    1.1757972836e-01    1.0121246094e+05
    1.1758995056e-01    1.0121246094e+05
    1.1759985983e-01    1.0121246094e+05
    1.1760976911e-01    1.0121244531e+05
    1.1761999130e-01    1.0121243750e+05
    1.1762990803e-01    1.0121242969e+05
    1.1763981730e-01    1.0121241406e+05
    1.1764972657e-01    1.0121241406e+05
    1.1765994877e-01    1.0121240625e+05
    1.1766985804e-01    1.0121239844e+05
    1.1767977476e-01    1.0121239844e+05
    1.1768999696e-01    1.0121239844e+05
    1.1769990623e-01    1.0121239844e+05
    1.1770981550e-01    1.0121239844e+05
    1.1771972477e-01    1.0121239844e+05
    1.1772994697e-01    1.0121239844e+05
    1.1773986369e-01    1.0121239844e+05
    1.1774977297e-01    1.0121239844e+05
    1.1775999516e-01    1.0121239844e+05
    1.1776990443e-01    1.0121239844e+05
    1.1777981371e-01    1.0121239844e+05
    1.1778973043e-01    1.0121239844e+05
    1.1779994518e-01    1.0121239844e+05
    1.1780986190e-01    1.0121238281e+05
    1.1781977117e-01    1.0121237500e+05
    1.1782999337e-01    1.0121237500e+05
    1.1783990264e-01    1.0121236719e+05
    1.1784981191e-01    1.0121235156e+05
    1.1785972863e-01    1.0121235156e+05
    1.1786995083e-01    1.0121235156e+05
    1.1787986010e-01    1.0121235156e+05
    1.1788976938e-01    1.0121235156e+05
    1.1789999157e-01    1.0121235156e+05
    1.1790990084e-01    1.0121234375e+05
    1.1791981757e-01    1.0121234375e+05
    1.1792972684e-01    1.0121233594e+05
    1.1793994904e-01    1.0121233594e+05
    1.1794985831e-01    1.0121233594e+05
    1.1795976758e-01    1.0121233594e+05
    1.1796998978e-01    1.0121233594e+05
    1.1797989905e-01    1.0121232031e+05
    1.1798981577e-01    1.0121232031e+05
    1.1799972504e-01    1.0121231250e+05
    1.1800994724e-01    1.0121231250e+05
    1.1801985651e-01    1.0121231250e+05
    1.1802976578e-01    1.0121231250e+05
    1.1803998798e-01    1.0121230469e+05
    1.1804990470e-01    1.0121230469e+05
    1.1805981398e-01    1.0121230469e+05
    1.1806972325e-01    1.0121228906e+05
    1.1807994545e-01    1.0121228906e+05
    1.1808985472e-01    1.0121228906e+05
    1.1809977144e-01    1.0121228906e+05
    1.1810999364e-01    1.0121228906e+05
    1.1811990291e-01    1.0121228125e+05
    1.1812981218e-01    1.0121228125e+05
    1.1813972145e-01    1.0121227344e+05
    1.1814994365e-01    1.0121227344e+05
    1.1815986037e-01    1.0121227344e+05
    1.1816976964e-01    1.0121227344e+05
    1.1817999184e-01    1.0121225781e+05
    1.1818990111e-01    1.0121225781e+05
    1.1819981039e-01    1.0121225000e+05
    1.1820972711e-01    1.0121225000e+05
    1.1821994185e-01    1.0121224219e+05
    1.1822985858e-01    1.0121224219e+05
    1.1823976785e-01    1.0121224219e+05
    1.1824999005e-01    1.0121222656e+05
    1.1825989932e-01    1.0121222656e+05
    1.1826980859e-01    1.0121222656e+05
    1.1827972531e-01    1.0121222656e+05
    1.1828994751e-01    1.0121222656e+05
    1.1829985678e-01    1.0121222656e+05
    1.1830976605e-01    1.0121221875e+05
    1.1831998825e-01    1.0121221875e+05
    1.1832989752e-01    1.0121221875e+05
    1.1833981425e-01    1.0121221094e+05
    1.1834972352e-01    1.0121221094e+05
    1.1835994571e-01    1.0121221094e+05
    1.1836985499e-01    1.0121221094e+05
    1.1837976426e-01    1.0121219531e+05
    1.1838998646e-01    1.0121219531e+05
    1.1839990318e-01    1.0121218750e+05
    1.1840981245e-01    1.0121218750e+05
    1.1841972172e-01    1.0121218750e+05
    1.1842994392e-01    1.0121218750e+05
    1.1843985319e-01    1.0121217969e+05
    1.1844976991e-01    1.0121217969e+05
    1.1845998466e-01    1.0121216406e+05
    1.1846990138e-01    1.0121216406e+05
    1.1847981066e-01    1.0121216406e+05
    1.1848971993e-01    1.0121216406e+05
    1.1849994212e-01    1.0121215625e+05
    1.1850985140e-01    1.0121215625e+05
    1.1851976812e-01    1.0121215625e+05
    1.1852999032e-01    1.0121214844e+05
    1.1853989959e-01    1.0121214844e+05
    1.1854980886e-01    1.0121214844e+05
    1.1855971813e-01    1.0121214844e+05
    1.1856994033e-01    1.0121214844e+05
    1.1857985705e-01    1.0121213281e+05
    1.1858976632e-01    1.0121213281e+05
    1.1859998852e-01    1.0121212500e+05
    1.1860989779e-01    1.0121212500e+05
    1.1861980706e-01    1.0121212500e+05
    1.1862972379e-01    1.0121211719e+05
    1.1863993853e-01    1.0121211719e+05
    1.1864985526e-01    1.0121211719e+05
    1.1865976453e-01    1.0121210156e+05
    1.1866998672e-01    1.0121210156e+05
    1.1867989600e-01    1.0121210156e+05
    1.1868981272e-01    1.0121210156e+05
    1.1869972199e-01    1.0121210156e+05
    1.1870994419e-01    1.0121210156e+05
    1.1871985346e-01    1.0121209375e+05
    1.1872976273e-01    1.0121209375e+05
    1.1873998493e-01    1.0121208594e+05
    1.1874989420e-01    1.0121208594e+05
    1.1875981092e-01    1.0121208594e+05
    1.1876972020e-01    1.0121208594e+05
    1.1877994239e-01    1.0121207031e+05
    1.1878985167e-01    1.0121207031e+05
    1.1879976094e-01    1.0121207031e+05
    1.1880998313e-01    1.0121206250e+05
    1.1881989986e-01    1.0121206250e+05
    1.1882980913e-01    1.0121206250e+05
    1.1883971840e-01    1.0121206250e+05
    1.1884994060e-01    1.0121205469e+05
    1.1885984987e-01    1.0121205469e+05
    1.1886976659e-01    1.0121203906e+05
    1.1887998134e-01    1.0121203906e+05
    1.1888989806e-01    1.0121203906e+05
    1.1889980733e-01    1.0121203906e+05
    1.1890971661e-01    1.0121203125e+05
    1.1891993880e-01    1.0121203125e+05
    1.1892985553e-01    1.0121203125e+05
    1.1893976480e-01    1.0121203125e+05
    1.1894998699e-01    1.0121202344e+05
    1.1895989627e-01    1.0121202344e+05
    1.1896980554e-01    1.0121202344e+05
    1.1897972226e-01    1.0121202344e+05
    1.1898993701e-01    1.0121202344e+05
    1.1899985373e-01    1.0121200781e+05
    1.1900976300e-01    1.0121200781e+05
    1.1901998520e-01    1.0121200000e+05
    1.1902989447e-01    1.0121200000e+05
    1.1903980374e-01    1.0121200000e+05
    1.1904972047e-01    1.0121199219e+05
    1.1905994266e-01    1.0121199219e+05
    1.1906985193e-01    1.0121199219e+05
    1.1907976121e-01    1.0121197656e+05
    1.1908998340e-01    1.0121197656e+05
    1.1909989268e-01    1.0121197656e+05
    1.1910980940e-01    1.0121197656e+05
    1.1911971867e-01    1.0121197656e+05
    1.1912994087e-01    1.0121196875e+05
    1.1913985014e-01    1.0121196875e+05
    1.1914975941e-01    1.0121196094e+05
    1.1915998161e-01    1.0121196094e+05
    1.1916989833e-01    1.0121196094e+05
    1.1917980760e-01    1.0121196094e+05
    1.1918971688e-01    1.0121196094e+05
    1.1919993907e-01    1.0121196094e+05
    1.1920984834e-01    1.0121194531e+05
    1.1921976507e-01    1.0121194531e+05
    1.1922997981e-01    1.0121194531e+05
    1.1923989654e-01    1.0121193750e+05
    1.1924980581e-01    1.0121193750e+05
    1.1925971508e-01    1.0121192969e+05
    1.1926993728e-01    1.0121192969e+05
    1.1927984655e-01    1.0121192969e+05
    1.1928976327e-01    1.0121191406e+05
    1.1929998547e-01    1.0121191406e+05
    1.1930989474e-01    1.0121191406e+05
    1.1931980401e-01    1.0121191406e+05
    1.1932972074e-01    1.0121191406e+05
    1.1933993548e-01    1.0121190625e+05
    1.1934985220e-01    1.0121190625e+05
    1.1935976148e-01    1.0121190625e+05
    1.1936998367e-01    1.0121189844e+05
    1.1937989295e-01    1.0121189844e+05
    1.1938980222e-01    1.0121189844e+05
    1.1939971894e-01    1.0121189844e+05
    1.1940994114e-01    1.0121189844e+05
    1.1941985041e-01    1.0121188281e+05
    1.1942975968e-01    1.0121188281e+05
    1.1943998188e-01    1.0121188281e+05
    1.1944989115e-01    1.0121187500e+05
    1.1945980787e-01    1.0121187500e+05
    1.1946971714e-01    1.0121186719e+05
    1.1947993934e-01    1.0121186719e+05
    1.1948984861e-01    1.0121186719e+05
    1.1949975789e-01    1.0121185156e+05
    1.1950998008e-01    1.0121185156e+05
    1.1951989681e-01    1.0121185156e+05
    1.1952980608e-01    1.0121185156e+05
    1.1953971535e-01    1.0121185156e+05
    1.1954993755e-01    1.0121184375e+05
    1.1955984682e-01    1.0121184375e+05
    1.1956976354e-01    1.0121183594e+05
    1.1957997829e-01    1.0121183594e+05
    1.1958989501e-01    1.0121183594e+05
    1.1959980428e-01    1.0121183594e+05
    1.1960971355e-01    1.0121183594e+05
    1.1961993575e-01    1.0121183594e+05
    1.1962985247e-01    1.0121183594e+05
    1.1963976175e-01    1.0121182031e+05
    1.1964998394e-01    1.0121182031e+05
    1.1965989321e-01    1.0121181250e+05
    1.1966980249e-01    1.0121181250e+05
    1.1967971921e-01    1.0121180469e+05
    1.1968993396e-01    1.0121180469e+05
    1.1969985068e-01    1.0121178906e+05
    1.1970975995e-01    1.0121178906e+05
    1.1971998215e-01    1.0121178906e+05
    1.1972989142e-01    1.0121178906e+05
    1.1973980814e-01    1.0121178906e+05
    1.1974971741e-01    1.0121178906e+05
    1.1975993961e-01    1.0121178125e+05
    1.1976984888e-01    1.0121178125e+05
    1.1977975816e-01    1.0121178125e+05
    1.1978998035e-01    1.0121177344e+05
    1.1979988962e-01    1.0121177344e+05
    1.1980980635e-01    1.0121177344e+05
    1.1981971562e-01    1.0121177344e+05
    1.1982993782e-01    1.0121175781e+05
    1.1983984709e-01    1.0121175781e+05
    1.1984975636e-01    1.0121175781e+05
    1.1985997856e-01    1.0121175000e+05
    1.1986989528e-01    1.0121175000e+05
    1.1987980455e-01    1.0121175000e+05
    1.1988971382e-01    1.0121175000e+05
    1.1989993602e-01    1.0121174219e+05
    1.1990984529e-01    1.0121174219e+05
    1.1991976202e-01    1.0121174219e+05
    1.1992998421e-01    1.0121172656e+05
    1.1993989348e-01    1.0121172656e+05
    1.1994980276e-01    1.0121172656e+05
    1.1995971203e-01    1.0121172656e+05
    1.1996993423e-01    1.0121171875e+05
    1.1997985095e-01    1.0121171875e+05
    1.1998976022e-01    1.0121171875e+05
    1.1999998242e-01    1.0121171094e+05
endcurve
