Curveplot
LS-DYNA keyword deck by LS-PrePost                          
Time
Pressure
Defined Connection
Pressure @ 57 #pts=14001
* Minval=     9.7774585938e+04 at time=         0.0881298855
* Maxval=     1.0939111719e+05 at time=         0.0706598163
    0.0000000000e+00    1.0120000000e+05
    9.9483822851e-06    1.0120000000e+05
    1.9960209102e-05    1.0120000000e+05
    2.9977063605e-05    1.0120000000e+05
    3.9990845835e-05    1.0120000000e+05
    4.9978934840e-05    1.0120000000e+05
    5.9978505305e-05    1.0120000000e+05
    6.9998990512e-05    1.0120000000e+05
    7.9993857071e-05    1.0120000000e+05
    8.9965120424e-05    1.0120000000e+05
    9.9963835964e-05    1.0120000000e+05
    1.0997783829e-04    1.0120000000e+05
    1.1999479466e-04    1.0120000000e+05
    1.2992623670e-04    1.0120000000e+05
    1.3998970098e-04    1.0120000000e+05
    1.4994325466e-04    1.0120000000e+05
    1.5993257693e-04    1.0120000000e+05
    1.6994992620e-04    1.0120000000e+05
    1.7998716794e-04    1.0120000000e+05
    1.8995010760e-04    1.0120000000e+05
    1.9991319277e-04    1.0120000000e+05
    2.0995661907e-04    1.0120000000e+05
    2.1998566808e-04    1.0120000000e+05
    2.2999133216e-04    1.0120000000e+05
    2.3996447271e-04    1.0120000000e+05
    2.4998953450e-04    1.0120000000e+05
    2.5995931355e-04    1.0120000000e+05
    2.6995115331e-04    1.0120000000e+05
    2.7996077552e-04    1.0120000000e+05
    2.8998689959e-04    1.0120000000e+05
    2.9992766213e-04    1.0120000000e+05
    3.0997995054e-04    1.0120000000e+05
    3.1994088204e-04    1.0120000000e+05
    3.2990850741e-04    1.0120000000e+05
    3.3998567960e-04    1.0120000000e+05
    3.4996267641e-04    1.0120000000e+05
    3.5994109930e-04    1.0120000000e+05
    3.6991946399e-04    1.0120000000e+05
    3.7989611155e-04    1.0120000000e+05
    3.8997925003e-04    1.0120000000e+05
    3.9994812687e-04    1.0120000000e+05
    4.0991001879e-04    1.0120000000e+05
    4.1997668450e-04    1.0120000000e+05
    4.2992003728e-04    1.0120000000e+05
    4.3996667955e-04    1.0120000000e+05
    4.4988378068e-04    1.0120000000e+05
    4.5990268700e-04    1.0120000000e+05
    4.6990532428e-04    1.0120000000e+05
    4.7988980077e-04    1.0120000000e+05
    4.8997643171e-04    1.0120000000e+05
    4.9992027925e-04    1.0120000000e+05
    5.0996465143e-04    1.0120000000e+05
    5.1998544950e-04    1.0120000000e+05
    5.2998069441e-04    1.0120000000e+05
    5.3994811606e-04    1.0120000000e+05
    5.4988579359e-04    1.0120000000e+05
    5.5992254056e-04    1.0120000000e+05
    5.6992773898e-04    1.0120000000e+05
    5.7989911875e-04    1.0120000000e+05
    5.8996939333e-04    1.0120000000e+05
    5.9986772249e-04    1.0120000000e+05
    6.0986290919e-04    1.0120000000e+05
    6.1995664146e-04    1.0120000000e+05
    6.2986987177e-04    1.0120000000e+05
    6.3987937756e-04    1.0120000000e+05
    6.4998678863e-04    1.0120000000e+05
    6.5990479197e-04    1.0120000000e+05
    6.6991825588e-04    1.0120000000e+05
    6.7988148658e-04    1.0120000000e+05
    6.8994052708e-04    1.0120000000e+05
    6.9994665682e-04    1.0120000000e+05
    7.0989725646e-04    1.0120000000e+05
    7.1994238533e-04    1.0120000000e+05
    7.2992901551e-04    1.0120000000e+05
    7.3985429481e-04    1.0120000000e+05
    7.4987270636e-04    1.0120000000e+05
    7.5998541433e-04    1.0120000000e+05
    7.6987367356e-04    1.0120000000e+05
    7.7985320240e-04    1.0120000000e+05
    7.8992533963e-04    1.0120000000e+05
    7.9992657993e-04    1.0120000000e+05
    8.0985389650e-04    1.0120000000e+05
    8.1987155136e-04    1.0120000000e+05
    8.2998082507e-04    1.0120000000e+05
    8.3984166849e-04    1.0120000000e+05
    8.4996299120e-04    1.0120000000e+05
    8.5982901510e-04    1.0120000000e+05
    8.6995831225e-04    1.0120000000e+05
    8.7982544210e-04    1.0120000000e+05
    8.8995811529e-04    1.0120000000e+05
    8.9982181089e-04    1.0120000000e+05
    9.0995337814e-04    1.0120000000e+05
    9.1999210417e-04    1.0120000000e+05
    9.2993426370e-04    1.0120000000e+05
    9.3996274518e-04    1.0120000000e+05
    9.4989070203e-04    1.0120000000e+05
    9.5990428235e-04    1.0120000000e+05
    9.6981314709e-04    1.0120000000e+05
    9.7999966238e-04    1.0120000000e+05
    9.8988611717e-04    1.0120000000e+05
    9.9985650741e-04    1.0120000000e+05
    1.0099119972e-03    1.0120000000e+05
    1.0198540986e-03    1.0120000000e+05
    1.0298803682e-03    1.0120000000e+05
    1.0399923194e-03    1.0120000000e+05
    1.0499861091e-03    1.0120000000e+05
    1.0598578956e-03    1.0120000000e+05
    1.0698118713e-03    1.0120000000e+05
    1.0798495496e-03    1.0120000000e+05
    1.0899722110e-03    1.0120000000e+05
    1.0999670485e-03    1.0120000000e+05
    1.1098309187e-03    1.0120000000e+05
    1.1199928122e-03    1.0120000000e+05
    1.1298034806e-03    1.0120000000e+05
    1.1399153154e-03    1.0120000000e+05
    1.1498900130e-03    1.0120000000e+05
    1.1599477148e-03    1.0120000000e+05
    1.1698636226e-03    1.0120000000e+05
    1.1798607884e-03    1.0120000000e+05
    1.1899413075e-03    1.0120000000e+05
    1.1998742120e-03    1.0120000000e+05
    1.2098898878e-03    1.0120000000e+05
    1.2199871708e-03    1.0120000000e+05
    1.2299314840e-03    1.0120000000e+05
    1.2399581028e-03    1.0120000000e+05
    1.2498263968e-03    1.0120000000e+05
    1.2597751338e-03    1.0120000000e+05
    1.2698060600e-03    1.0120000000e+05
    1.2799224351e-03    1.0120000000e+05
    1.2898722198e-03    1.0120000000e+05
    1.2999051251e-03    1.0120000000e+05
    1.3097664341e-03    1.0120000000e+05
    1.3199654641e-03    1.0120000000e+05
    1.3299925486e-03    1.0120000000e+05
    1.3398425654e-03    1.0120000000e+05
    1.3497731416e-03    1.0120000000e+05
    1.3597855577e-03    1.0120000000e+05
    1.3698813273e-03    1.0120000000e+05
    1.3797928113e-03    1.0120000000e+05
    1.3897867175e-03    1.0120000000e+05
    1.3998630457e-03    1.0120000000e+05
    1.4097490348e-03    1.0120000000e+05
    1.4199940488e-03    1.0120000000e+05
    1.4297664165e-03    1.0120000000e+05
    1.4399014181e-03    1.0120000000e+05
    1.4498372329e-03    1.0120000000e+05
    1.4598559355e-03    1.0120000000e+05
    1.4699589228e-03    1.0120000000e+05
    1.4798555057e-03    1.0120000000e+05
    1.4898346271e-03    1.0120000000e+05
    1.4998981496e-03    1.0120000000e+05
    1.5097471187e-03    1.0120000000e+05
    1.5199808404e-03    1.0120000000e+05
    1.5299982624e-03    1.0120000000e+05
    1.5397940297e-03    1.0120000000e+05
    1.5499813017e-03    1.0120000000e+05
    1.5599444741e-03    1.0120000000e+05
    1.5699925134e-03    1.0120000000e+05
    1.5798092354e-03    1.0120000000e+05
    1.5897088451e-03    1.0120000000e+05
    1.5996929724e-03    1.0120000000e+05
    1.6097631305e-03    1.0120000000e+05
    1.6199208330e-03    1.0120000000e+05
    1.6298366245e-03    1.0120000000e+05
    1.6398376320e-03    1.0120000000e+05
    1.6499264166e-03    1.0120000000e+05
    1.6597632784e-03    1.0120000000e+05
    1.6696852399e-03    1.0120000000e+05
    1.6796939308e-03    1.0120000000e+05
    1.6897912137e-03    1.0120000000e+05
    1.6999787185e-03    1.0120000000e+05
    1.7099025426e-03    1.0120000000e+05
    1.7199142603e-03    1.0120000000e+05
    1.7296534497e-03    1.0120000000e+05
    1.7398436321e-03    1.0120000000e+05
    1.7497582594e-03    1.0120000000e+05
    1.7597619444e-03    1.0120000000e+05
    1.7698565498e-03    1.0120000000e+05
    1.7796652392e-03    1.0120000000e+05
    1.7899442464e-03    1.0120000000e+05
    1.7999345437e-03    1.0120000000e+05
    1.8096275162e-03    1.0120000000e+05
    1.8198005855e-03    1.0120000000e+05
    1.8296731869e-03    1.0120000000e+05
    1.8396369414e-03    1.0120000000e+05
    1.8496939447e-03    1.0120000000e+05
    1.8598465249e-03    1.0120000000e+05
    1.8696850166e-03    1.0120000000e+05
    1.8796157092e-03    1.0120000000e+05
    1.8896408146e-03    1.0120000000e+05
    1.8997625448e-03    1.0120000000e+05
    1.9099835772e-03    1.0120000000e+05
    1.9198738737e-03    1.0120000000e+05
    1.9298471743e-03    1.0120000000e+05
    1.9398801960e-03    1.0120000000e+05
    1.9499637419e-03    1.0120000000e+05
    1.9596405327e-03    1.0120000000e+05
    1.9698012620e-03    1.0120000000e+05
    1.9799938891e-03    1.0120000000e+05
    1.9897432067e-03    1.0120000000e+05
    1.9999493379e-03    1.0120000000e+05
    2.0097524393e-03    1.0120000000e+05
    2.0199450664e-03    1.0120000000e+05
    2.0297404844e-03    1.0120000000e+05
    2.0399708301e-03    1.0120000000e+05
    2.0497124642e-03    1.0120000000e+05
    2.0599220879e-03    1.0120000000e+05
    2.0696995780e-03    1.0120000000e+05
    2.0798840560e-03    1.0120000000e+05
    2.0896443166e-03    1.0120000000e+05
    2.0998371765e-03    1.0120000000e+05
    2.1095729899e-03    1.0120000000e+05
    2.1197847091e-03    1.0120000000e+05
    2.1299361251e-03    1.0120000000e+05
    2.1397422533e-03    1.0120000000e+05
    2.1499227732e-03    1.0120000000e+05
    2.1596555598e-03    1.0120000000e+05
    2.1698172204e-03    1.0120000000e+05
    2.1796056535e-03    1.0120000000e+05
    2.1898476407e-03    1.0120000000e+05
    2.1996791475e-03    1.0120000000e+05
    2.2099670023e-03    1.0120000000e+05
    2.2198092192e-03    1.0120000000e+05
    2.2296688985e-03    1.0120000000e+05
    2.2395679262e-03    1.0120000000e+05
    2.2499479819e-03    1.0120000000e+05
    2.2598761134e-03    1.0120000000e+05
    2.2698179819e-03    1.0120000000e+05
    2.2797575220e-03    1.0120000000e+05
    2.2896879818e-03    1.0120000000e+05
    2.2995981853e-03    1.0120000000e+05
    2.3099686950e-03    1.0120000000e+05
    2.3198472336e-03    1.0120000000e+05
    2.3296959698e-03    1.0120000000e+05
    2.3399603087e-03    1.0120000000e+05
    2.3497298826e-03    1.0120000000e+05
    2.3598880507e-03    1.0120000000e+05
    2.3699684534e-03    1.0120000000e+05
    2.3799687624e-03    1.0120000000e+05
    2.3898903746e-03    1.0120000000e+05
    2.3997339886e-03    1.0120000000e+05
    2.4099240545e-03    1.0120000000e+05
    2.4196126033e-03    1.0120000000e+05
    2.4296434131e-03    1.0120000000e+05
    2.4395948276e-03    1.0120000000e+05
    2.4498777930e-03    1.0120000000e+05
    2.4596708827e-03    1.0120000000e+05
    2.4697910994e-03    1.0120000000e+05
    2.4798300583e-03    1.0120000000e+05
    2.4897886906e-03    1.0120000000e+05
    2.4996683933e-03    1.0120000000e+05
    2.5098607875e-03    1.0120000000e+05
    2.5199695956e-03    1.0120000000e+05
    2.5299964473e-03    1.0120000000e+05
    2.5399420410e-03    1.0120000000e+05
    2.5498075411e-03    1.0120000000e+05
    2.5599687360e-03    1.0120000000e+05
    2.5696735829e-03    1.0120000000e+05
    2.5796699338e-03    1.0120000000e+05
    2.5899494067e-03    1.0120000000e+05
    2.5997783523e-03    1.0120000000e+05
    2.6098862290e-03    1.0120000000e+05
    2.6199081913e-03    1.0120000000e+05
    2.6298451703e-03    1.0120000000e+05
    2.6396971662e-03    1.0120000000e+05
    2.6498136576e-03    1.0120000000e+05
    2.6598409750e-03    1.0120000000e+05
    2.6697802823e-03    1.0120000000e+05
    2.6799705811e-03    1.0120000000e+05
    2.6897331700e-03    1.0120000000e+05
    2.6997418609e-03    1.0120000000e+05
    2.7099882718e-03    1.0120000000e+05
    2.7198118623e-03    1.0120000000e+05
    2.7298685163e-03    1.0120000000e+05
    2.7398292441e-03    1.0120000000e+05
    2.7496952098e-03    1.0120000000e+05
    2.7597798035e-03    1.0120000000e+05
    2.7697645128e-03    1.0120000000e+05
    2.7799564414e-03    1.0120000000e+05
    2.7897385880e-03    1.0120000000e+05
    2.7997223660e-03    1.0120000000e+05
    2.8098991606e-03    1.0120000000e+05
    2.8199646622e-03    1.0120000000e+05
    2.8299188707e-03    1.0120000000e+05
    2.8397622518e-03    1.0120000000e+05
    2.8497793246e-03    1.0120000000e+05
    2.8599600773e-03    1.0120000000e+05
    2.8697387315e-03    1.0120000000e+05
    2.8799481224e-03    1.0120000000e+05
    2.8897554148e-03    1.0120000000e+05
    2.8999713250e-03    1.0120000000e+05
    2.9097839724e-03    1.0120000000e+05
    2.9199826531e-03    1.0120000000e+05
    2.9297764413e-03    1.0120000000e+05
    2.9399318155e-03    1.0120000000e+05
    2.9499281663e-03    1.0120000000e+05
    2.9597638641e-03    1.0120000000e+05
    2.9699164443e-03    1.0120000000e+05
    2.9798881151e-03    1.0120000000e+05
    2.9899065848e-03    1.0120000000e+05
    2.9999553226e-03    1.0120000000e+05
    3.0097954441e-03    1.0120000000e+05
    3.0198551249e-03    1.0120000000e+05
    3.0298866332e-03    1.0120000000e+05
    3.0398678500e-03    1.0120000000e+05
    3.0499717686e-03    1.0120000000e+05
    3.0599581078e-03    1.0120000000e+05
    3.0699793715e-03    1.0120000000e+05
    3.0799743254e-03    1.0120000000e+05
    3.0898707919e-03    1.0120000000e+05
    3.0999006703e-03    1.0120000000e+05
    3.1098865438e-03    1.0120000000e+05
    3.1199855730e-03    1.0120000000e+05
    3.1299954280e-03    1.0120000000e+05
    3.1399966683e-03    1.0120000000e+05
    3.1499578618e-03    1.0120000000e+05
    3.1599840149e-03    1.0120000000e+05
    3.1699817628e-03    1.0120000000e+05
    3.1798817217e-03    1.0120000000e+05
    3.1898538582e-03    1.0120000000e+05
    3.1998411287e-03    1.0120000000e+05
    3.2098791562e-03    1.0120000000e+05
    3.2199509442e-03    1.0120000000e+05
    3.2299167942e-03    1.0120000000e+05
    3.2398120966e-03    1.0120000000e+05
    3.2498824876e-03    1.0120000000e+05
    3.2599016558e-03    1.0120000000e+05
    3.2699664589e-03    1.0120000000e+05
    3.2798342872e-03    1.0120000000e+05
    3.2899561338e-03    1.0120000000e+05
    3.2998130191e-03    1.0120000000e+05
    3.3099423163e-03    1.0120000000e+05
    3.3199780155e-03    1.0120000000e+05
    3.3298721537e-03    1.0120000000e+05
    3.3398703672e-03    1.0120000000e+05
    3.3499444835e-03    1.0120000000e+05
    3.3598775044e-03    1.0120000000e+05
    3.3698799089e-03    1.0120000000e+05
    3.3799372613e-03    1.0120000000e+05
    3.3898795955e-03    1.0120000000e+05
    3.3998403233e-03    1.0120000000e+05
    3.4098869655e-03    1.0120000000e+05
    3.4199832007e-03    1.0120000000e+05
    3.4299101681e-03    1.0120000000e+05
    3.4399034921e-03    1.0120000000e+05
    3.4499259200e-03    1.0120000000e+05
    3.4597984049e-03    1.0120000000e+05
    3.4699195530e-03    1.0120000000e+05
    3.4798774868e-03    1.0120000000e+05
    3.4898803569e-03    1.0120000000e+05
    3.4999100026e-03    1.0120000000e+05
    3.5097899381e-03    1.0120000000e+05
    3.5198917612e-03    1.0120000000e+05
    3.5298508592e-03    1.0120000000e+05
    3.5398127511e-03    1.0120000000e+05
    3.5498307552e-03    1.0120000000e+05
    3.5598934628e-03    1.0120000000e+05
    3.5699657165e-03    1.0120000000e+05
    3.5798856989e-03    1.0120000000e+05
    3.5897931084e-03    1.0120000000e+05
    3.5999917891e-03    1.0120000000e+05
    3.6097711418e-03    1.0120000000e+05
    3.6197705194e-03    1.0120000000e+05
    3.6298588384e-03    1.0120000000e+05
    3.6399362143e-03    1.0120000000e+05
    3.6498054396e-03    1.0120000000e+05
    3.6599945743e-03    1.0120000000e+05
    3.6698996555e-03    1.0120000000e+05
    3.6798876245e-03    1.0120000000e+05
    3.6899046972e-03    1.0120000000e+05
    3.6998884752e-03    1.0120000000e+05
    3.7099805195e-03    1.0120000000e+05
    3.7197978236e-03    1.0120000000e+05
    3.7298796233e-03    1.0120000000e+05
    3.7397937849e-03    1.0120000000e+05
    3.7499147002e-03    1.0120000000e+05
    3.7598544732e-03    1.0120000000e+05
    3.7698203232e-03    1.0120000000e+05
    3.7797833793e-03    1.0120000000e+05
    3.7898032460e-03    1.0120000000e+05
    3.7998331245e-03    1.0120000000e+05
    3.8098727819e-03    1.0120000000e+05
    3.8199478295e-03    1.0120000000e+05
    3.8297891151e-03    1.0120000000e+05
    3.8398928009e-03    1.0120000000e+05
    3.8497713394e-03    1.0120000000e+05
    3.8599101827e-03    1.0120000000e+05
    3.8698185235e-03    1.0120000000e+05
    3.8799862377e-03    1.0120000000e+05
    3.8899171632e-03    1.0120000000e+05
    3.8998571690e-03    1.0120000000e+05
    3.9098043926e-03    1.0120000000e+05
    3.9197579026e-03    1.0120000000e+05
    3.9299642667e-03    1.0120000000e+05
    3.9399247617e-03    1.0120000000e+05
    3.9498866536e-03    1.0120000000e+05
    3.9598485455e-03    1.0120000000e+05
    3.9698104374e-03    1.0120000000e+05
    3.9797713980e-03    1.0120000000e+05
    3.9899814874e-03    1.0120000000e+05
    3.9999415167e-03    1.0120000000e+05
    4.0098987520e-03    1.0120000000e+05
    4.0198573843e-03    1.0120000000e+05
    4.0298150852e-03    1.0120000000e+05
    4.0397727862e-03    1.0120000000e+05
    4.0499791503e-03    1.0120000000e+05
    4.0599415079e-03    1.0120000000e+05
    4.0699052624e-03    1.0120000000e+05
    4.0798699483e-03    1.0120000000e+05
    4.0898430161e-03    1.0120000000e+05
    4.0998253971e-03    1.0120000000e+05
    4.1098096408e-03    1.0120000000e+05
    4.1197994724e-03    1.0120000000e+05
    4.1298018768e-03    1.0120000000e+05
    4.1398080066e-03    1.0120000000e+05
    4.1498187929e-03    1.0120000000e+05
    4.1598440148e-03    1.0120000000e+05
    4.1698818095e-03    1.0120000000e+05
    4.1799214669e-03    1.0120000000e+05
    4.1899667121e-03    1.0120000000e+05
    4.1997758672e-03    1.0120000000e+05
    4.2098457925e-03    1.0120000000e+05
    4.2199133895e-03    1.0120000000e+05
    4.2297495529e-03    1.0120000000e+05
    4.2398478836e-03    1.0120000000e+05
    4.2499504052e-03    1.0120000000e+05
    4.2597991414e-03    1.0120000000e+05
    4.2699244805e-03    1.0120000000e+05
    4.2798011564e-03    1.0120000000e+05
    4.2899372056e-03    1.0120000000e+05
    4.2998231947e-03    1.0120000000e+05
    4.3099857867e-03    1.0120000000e+05
    4.3198885396e-03    1.0120000000e+05
    4.3298015371e-03    1.0120000000e+05
    4.3399813585e-03    1.0120000000e+05
    4.3499246240e-03    1.0120000000e+05
    4.3598520570e-03    1.0120000000e+05
    4.3697995134e-03    1.0120000000e+05
    4.3797595426e-03    1.0120000000e+05
    4.3899868615e-03    1.0120000000e+05
    4.3999436311e-03    1.0120000000e+05
    4.4099255465e-03    1.0120000000e+05
    4.4199153781e-03    1.0120000000e+05
    4.4299117289e-03    1.0120000000e+05
    4.4398959726e-03    1.0120000000e+05
    4.4499137439e-03    1.0120000000e+05
    4.4599319808e-03    1.0120000000e+05
    4.4699595310e-03    1.0120000000e+05
    4.4799745083e-03    1.0120000000e+05
    4.4897655025e-03    1.0120000000e+05
    4.4998037629e-03    1.0120000000e+05
    4.5098592527e-03    1.0120000000e+05
    4.5199035667e-03    1.0120000000e+05
    4.5299762860e-03    1.0120000000e+05
    4.5397784561e-03    1.0120000000e+05
    4.5498656109e-03    1.0120000000e+05
    4.5599453151e-03    1.0120000000e+05
    4.5697875321e-03    1.0120000000e+05
    4.5798746869e-03    1.0120000000e+05
    4.5899897814e-03    1.0120000000e+05
    4.5998427086e-03    1.0120000000e+05
    4.6099680476e-03    1.0120000000e+05
    4.6198195778e-03    1.0120000000e+05
    4.6299537644e-03    1.0120000000e+05
    4.6398346312e-03    1.0120000000e+05
    4.6499869786e-03    1.0120000000e+05
    4.6598673798e-03    1.0120000000e+05
    4.6697617508e-03    1.0120000000e+05
    4.6799280681e-03    1.0120000000e+05
    4.6898433939e-03    1.0120000000e+05
    4.6997517347e-03    1.0120000000e+05
    4.7099264339e-03    1.0120000000e+05
    4.7198510729e-03    1.0120000000e+05
    4.7297878191e-03    1.0120000000e+05
    4.7399876639e-03    1.0120000000e+05
    4.7499230132e-03    1.0120000000e+05
    4.7598662786e-03    1.0120000000e+05
    4.7698211856e-03    1.0120000000e+05
    4.7797821462e-03    1.0120000000e+05
    4.7897403128e-03    1.0120000000e+05
    4.7999671660e-03    1.0120000000e+05
    4.8099416308e-03    1.0120000000e+05
    4.8199254088e-03    1.0120000000e+05
    4.8299054615e-03    1.0120000000e+05
    4.8398794606e-03    1.0120000000e+05
    4.8498623073e-03    1.0120000000e+05
    4.8598684371e-03    1.0120000000e+05
    4.8698848113e-03    1.0120000000e+05
    4.8798988573e-03    1.0120000000e+05
    4.8899068497e-03    1.0120000000e+05
    4.8999106511e-03    1.0120000000e+05
    4.9099219032e-03    1.0120000000e+05
    4.9199420027e-03    1.0120000000e+05
    4.9299723469e-03    1.0120000000e+05
    4.9397367984e-03    1.0120000000e+05
    4.9497629516e-03    1.0120000000e+05
    4.9597872421e-03    1.0120000000e+05
    4.9698106013e-03    1.0120000000e+05
    4.9798334949e-03    1.0120000000e+05
    4.9898559228e-03    1.0120000000e+05
    4.9998802133e-03    1.0120000000e+05
    5.0099077635e-03    1.0120000000e+05
    5.0199381076e-03    1.0120000000e+05
    5.0299693830e-03    1.0120000000e+05
    5.0399992615e-03    1.0120000000e+05
    5.0497641787e-03    1.0120000000e+05
    5.0597912632e-03    1.0120000000e+05
    5.0698183477e-03    1.0120000000e+05
    5.0798449665e-03    1.0120000000e+05
    5.0898715854e-03    1.0120000000e+05
    5.0998982042e-03    1.0120000000e+05
    5.1099252887e-03    1.0120000000e+05
    5.1199514419e-03    1.0120000000e+05
    5.1299771294e-03    1.0120000000e+05
    5.1397392526e-03    1.0120000000e+05
    5.1497644745e-03    1.0120000000e+05
    5.1597896963e-03    1.0120000000e+05
    5.1698144525e-03    1.0120000000e+05
    5.1798392087e-03    1.0120000000e+05
    5.1898630336e-03    1.0120000000e+05
    5.1998873241e-03    1.0120000000e+05
    5.2099134773e-03    1.0120000000e+05
    5.2199405618e-03    1.0120000000e+05
    5.2299671806e-03    1.0120000000e+05
    5.2399933338e-03    1.0120000000e+05
    5.2497540601e-03    1.0120000000e+05
    5.2597774193e-03    1.0120000000e+05
    5.2698003128e-03    1.0120000000e+05
    5.2798227407e-03    1.0120000000e+05
    5.2898451686e-03    1.0120000000e+05
    5.2998694591e-03    1.0120000000e+05
    5.3098956123e-03    1.0120000000e+05
    5.3199226968e-03    1.0120000000e+05
    5.3299493156e-03    1.0120000000e+05
    5.3399750032e-03    1.0120000000e+05
    5.3499997593e-03    1.0120000000e+05
    5.3597595543e-03    1.0120000000e+05
    5.3697829135e-03    1.0120000000e+05
    5.3798053414e-03    1.0120000000e+05
    5.3898310289e-03    1.0120000000e+05
    5.3998613730e-03    1.0120000000e+05
    5.4098903202e-03    1.0120000000e+05
    5.4199174047e-03    1.0120000000e+05
    5.4299444892e-03    1.0120000000e+05
    5.4399706423e-03    1.0120000000e+05
    5.4497374222e-03    1.0120000000e+05
    5.4597705603e-03    1.0120000000e+05
    5.4698023014e-03    1.0120000000e+05
    5.4798331112e-03    1.0120000000e+05
    5.4898629896e-03    1.0120000000e+05
    5.4998933338e-03    1.0120000000e+05
    5.5099292658e-03    1.0120000000e+05
    5.5199642666e-03    1.0120000000e+05
    5.5299983360e-03    1.0120000000e+05
    5.5397674441e-03    1.0120000000e+05
    5.5498015136e-03    1.0120000000e+05
    5.5598397739e-03    1.0120000000e+05
    5.5698771030e-03    1.0120000000e+05
    5.5799135007e-03    1.0120000000e+05
    5.5899485014e-03    1.0120000000e+05
    5.5999872275e-03    1.0120000000e+05
    5.6097637862e-03    1.0120000000e+05
    5.6198029779e-03    1.0120000000e+05
    5.6298412383e-03    1.0120000000e+05
    5.6398808956e-03    1.0120000000e+05
    5.6499228813e-03    1.0120000000e+05
    5.6599639356e-03    1.0120000000e+05
    5.6697404943e-03    1.0120000000e+05
    5.6797810830e-03    1.0120000000e+05
    5.6898240000e-03    1.0120000000e+05
    5.6998659857e-03    1.0120000000e+05
    5.7099079713e-03    1.0120000000e+05
    5.7199499570e-03    1.0120000000e+05
    5.7299928740e-03    1.0120000000e+05
    5.7397708297e-03    1.0120000000e+05
    5.7498128153e-03    1.0120000000e+05
    5.7598552667e-03    1.0120000000e+05
    5.7698981836e-03    1.0120000000e+05
    5.7799401693e-03    1.0120000000e+05
    5.7899821550e-03    1.0120000000e+05
    5.7997601107e-03    1.0120000000e+05
    5.8098016307e-03    1.0120000000e+05
    5.8198431507e-03    1.0120000000e+05
    5.8298846707e-03    1.0120000000e+05
    5.8399261907e-03    1.0120000000e+05
    5.8499672450e-03    1.0120000000e+05
    5.8597438037e-03    1.0120000000e+05
    5.8697839268e-03    1.0120000000e+05
    5.8798240498e-03    1.0120000000e+05
    5.8898632415e-03    1.0120000000e+05
    5.8999038301e-03    1.0120000000e+05
    5.9099462815e-03    1.0120000000e+05
    5.9199887328e-03    1.0120000000e+05
    5.9297666885e-03    1.0120000000e+05
    5.9398077428e-03    1.0120000000e+05
    5.9498487972e-03    1.0120000000e+05
    5.9598893858e-03    1.0120000000e+05
    5.9699295089e-03    1.0120000000e+05
    5.9799696319e-03    1.0120000000e+05
    5.9897452593e-03    1.0120000000e+05
    5.9997849166e-03    1.0120000000e+05
    6.0098241083e-03    1.0120000000e+05
    6.0198633000e-03    1.0120000000e+05
    6.0299024917e-03    1.0120000000e+05
    6.0399416834e-03    1.0120000000e+05
    6.0499804094e-03    1.0120000000e+05
    6.0597555712e-03    1.0120000000e+05
    6.0697956942e-03    1.0120000000e+05
    6.0798372142e-03    1.0120000000e+05
    6.0898782685e-03    1.0120000000e+05
    6.0999188572e-03    1.0120000000e+05
    6.1099622399e-03    1.0120000000e+05
    6.1197439209e-03    1.0120000000e+05
    6.1297928914e-03    1.0120000000e+05
    6.1398469843e-03    1.0120000000e+05
    6.1499075964e-03    1.0120000000e+05
    6.1599765904e-03    1.0120000000e+05
    6.1697824858e-03    1.0120000000e+05
    6.1798528768e-03    1.0120000000e+05
    6.1899223365e-03    1.0120000000e+05
    6.1999945901e-03    1.0120000000e+05
    6.2098093331e-03    1.0120000000e+05
    6.2198950909e-03    1.0120000000e+05
    6.2299841084e-03    1.0120000000e+05
    6.2398109585e-03    1.0120000000e+05
    6.2499064952e-03    1.0120000000e+05
    6.2597384676e-03    1.0120000000e+05
    6.2698484398e-03    1.0120000000e+05
    6.2799644656e-03    1.0120000000e+05
    6.2898197211e-03    1.0120000000e+05
    6.2999445945e-03    1.0120000000e+05
    6.3098133542e-03    1.0120000000e+05
    6.3199605793e-03    1.0120000000e+05
    6.3298433088e-03    1.0120000000e+05
    6.3399937935e-03    1.0120000000e+05
    6.3498890959e-03    1.0120000000e+05
    6.3597974367e-03    1.0120000000e+05
    6.3699837774e-03    1.0120000000e+05
    6.3799009658e-03    1.0120000000e+05
    6.3898242079e-03    1.0120000000e+05
    6.3997576945e-03    1.0120000000e+05
    6.4099752344e-03    1.0120000000e+05
    6.4199301414e-03    1.0120000000e+05
    6.4298831858e-03    1.0120000000e+05
    6.4398441464e-03    1.0120000000e+05
    6.4498176798e-03    1.0120000000e+05
    6.4598028548e-03    1.0120000000e+05
    6.4697964117e-03    1.0120000000e+05
    6.4797848463e-03    1.0120000000e+05
    6.4897793345e-03    1.0120000000e+05
    6.4997905865e-03    1.0120000000e+05
    6.5098102205e-03    1.0120000000e+05
    6.5198377706e-03    1.0120000000e+05
    6.5298597328e-03    1.0120000000e+05
    6.5398858860e-03    1.0120000000e+05
    6.5499297343e-03    1.0120000000e+05
    6.5599856898e-03    1.0120000000e+05
    6.5697710961e-03    1.0120000000e+05
    6.5798265859e-03    1.0120000000e+05
    6.5898802131e-03    1.0120000000e+05
    6.5999547951e-03    1.0120000000e+05
    6.6097695380e-03    1.0120000000e+05
    6.6198525019e-03    1.0120000000e+05
    6.6299391910e-03    1.0120000000e+05
    6.6397539340e-03    1.0120000000e+05
    6.6498555243e-03    1.0120000000e+05
    6.6599715501e-03    1.0120000000e+05
    6.6698119044e-03    1.0120000000e+05
    6.6799251363e-03    1.0120000000e+05
    6.6897757351e-03    1.0120000000e+05
    6.6999094561e-03    1.0120000000e+05
    6.7097763531e-03    1.0120000000e+05
    6.7199128680e-03    1.0120000000e+05
    6.7297872156e-03    1.0120000000e+05
    6.7399442196e-03    1.0120000000e+05
    6.7498371936e-03    1.0120000000e+05
    6.7597348243e-03    1.0120000000e+05
    6.7698978819e-03    1.0120000000e+05
    6.7797889933e-03    1.0120000000e+05
    6.7899781279e-03    1.0120000000e+05
    6.7998934537e-03    1.0120000000e+05
    6.8098152988e-03    1.0120000000e+05
    6.8197320215e-03    1.0120000000e+05
    6.8299220875e-03    1.0120000000e+05
    6.8398532458e-03    1.0120000000e+05
    6.8498002365e-03    1.0120000000e+05
    6.8597467616e-03    1.0120000000e+05
    6.8699591793e-03    1.0120000000e+05
    6.8798996508e-03    1.0120000000e+05
    6.8898526952e-03    1.0120000000e+05
    6.8998183124e-03    1.0120000000e+05
    6.9097899832e-03    1.0120000000e+05
    6.9197644480e-03    1.0120000000e+05
    6.9297258742e-03    1.0120000000e+05
    6.9399774075e-03    1.0120000000e+05
    6.9499686360e-03    1.0120000000e+05
    6.9599607959e-03    1.0120000000e+05
    6.9699585438e-03    1.0120000000e+05
    6.9799604826e-03    1.0120000000e+05
    6.9899545051e-03    1.0120000000e+05
    6.9999550469e-03    1.0120000000e+05
    7.0099709556e-03    1.0120000000e+05
    7.0199933834e-03    1.0120000000e+05
    7.0297433995e-03    1.0120000000e+05
    7.0397765376e-03    1.0120000000e+05
    7.0498017594e-03    1.0120000000e+05
    7.0598251186e-03    1.0120000000e+05
    7.0698601194e-03    1.0120000000e+05
    7.0799123496e-03    1.0120000000e+05
    7.0899687707e-03    1.0120000000e+05
    7.0997518487e-03    1.0120000000e+05
    7.1098064072e-03    1.0120000000e+05
    7.1198544465e-03    1.0120000000e+05
    7.1299136616e-03    1.0120000000e+05
    7.1399938315e-03    1.0120000000e+05
    7.1497936733e-03    1.0120000000e+05
    7.1598729119e-03    1.0120000000e+05
    7.1699507535e-03    1.0120000000e+05
    7.1797431447e-03    1.0120000000e+05
    7.1898265742e-03    1.0120000000e+05
    7.1999276988e-03    1.0120000000e+05
    7.2097503580e-03    1.0120000000e+05
    7.2198505513e-03    1.0120000000e+05
    7.2299595922e-03    1.0120000000e+05
    7.2397845797e-03    1.0120000000e+05
    7.2498931549e-03    1.0120000000e+05
    7.2597311810e-03    1.0120000000e+05
    7.2698597796e-03    1.0120000000e+05
    7.2799855843e-03    1.0120000000e+05
    7.2898389772e-03    1.0120000000e+05
    7.2999838740e-03    1.0120000000e+05
    7.3098400608e-03    1.0120000000e+05
    7.3199872859e-03    1.0120000000e+05
    7.3298616335e-03    1.0120000000e+05
    7.3397299275e-03    1.0120000000e+05
    7.3498808779e-03    1.0120000000e+05
    7.3597673327e-03    1.0120000000e+05
    7.3699415661e-03    1.0120000000e+05
    7.3798312806e-03    1.0120000000e+05
    7.3897242546e-03    1.0120000000e+05
    7.3999017477e-03    1.0120000000e+05
    7.4097956531e-03    1.0120000000e+05
    7.4199838564e-03    1.0120000000e+05
    7.4299066328e-03    1.0120000000e+05
    7.4398270808e-03    1.0120000000e+05
    7.4497479945e-03    1.0120000000e+05
    7.4599552900e-03    1.0120000000e+05
    7.4698724784e-03    1.0120000000e+05
    7.4797957204e-03    1.0120000000e+05
    7.4897385202e-03    1.0120000000e+05
    7.4999732897e-03    1.0120000000e+05
    7.5099202804e-03    1.0120000000e+05
    7.5198658742e-03    1.0120000000e+05
    7.5298063457e-03    1.0120000000e+05
    7.5397468172e-03    1.0120000000e+05
    7.5499871746e-03    1.0120000000e+05
    7.5599583797e-03    1.0120000000e+05
    7.5699323788e-03    1.0120000000e+05
    7.5799091719e-03    1.0120000000e+05
    7.5898841023e-03    1.0120000000e+05
    7.5998478569e-03    1.0120000000e+05
    7.6098125428e-03    1.0120000000e+05
    7.6197967865e-03    1.0120000000e+05
    7.6297940686e-03    1.0120000000e+05
    7.6397960074e-03    1.0120000000e+05
    7.6497998089e-03    1.0120000000e+05
    7.6597998850e-03    1.0120000000e+05
    7.6698013581e-03    1.0120000000e+05
    7.6798084192e-03    1.0120000000e+05
    7.6898215339e-03    1.0120000000e+05
    7.6998425648e-03    1.0120000000e+05
    7.7098747715e-03    1.0120000000e+05
    7.7199111693e-03    1.0120000000e+05
    7.7299396507e-03    1.0120000000e+05
    7.7399704605e-03    1.0120000000e+05
    7.7497265302e-03    1.0120000000e+05
    7.7597764321e-03    1.0120000000e+05
    7.7698291279e-03    1.0120000000e+05
    7.7798906714e-03    1.0120000000e+05
    7.7899564058e-03    1.0120000000e+05
    7.7997334301e-03    1.0120000000e+05
    7.8098014928e-03    1.0120000000e+05
    7.8198742121e-03    1.0120000000e+05
    7.8299548477e-03    1.0120000000e+05
    7.8397588804e-03    1.0120000000e+05
    7.8498572111e-03    1.0120000000e+05
    7.8599546105e-03    1.0120000000e+05
    7.8697632998e-03    1.0120000000e+05
    7.8798634931e-03    1.0120000000e+05
    7.8899711370e-03    1.0120000000e+05
    7.8997975215e-03    1.0120000000e+05
    7.9099237919e-03    1.0120000000e+05
    7.9197688028e-03    1.0120000000e+05
    7.9299034551e-03    1.0120000000e+05
    7.9397475347e-03    1.0120000000e+05
    7.9498840496e-03    1.0120000000e+05
    7.9597299919e-03    1.0120000000e+05
    7.9698776826e-03    1.0120000000e+05
    7.9797506332e-03    1.0120000000e+05
    7.9899216071e-03    1.0120000000e+05
    7.9998048022e-03    1.0120000000e+05
    8.0099804327e-03    1.0120000000e+05
    8.0198673531e-03    1.0120000000e+05
    8.0297514796e-03    1.0120000000e+05
    8.0399271101e-03    1.0120000000e+05
    8.0498214811e-03    1.0120000000e+05
    8.0597298220e-03    1.0120000000e+05
    8.0699352548e-03    1.0120000000e+05
    8.0798575655e-03    1.0120000000e+05
    8.0897845328e-03    1.0120000000e+05
    8.0997180194e-03    1.0120000000e+05
    8.1099439412e-03    1.0120000000e+05
    8.1198755652e-03    1.0120000000e+05
    8.1298090518e-03    1.0120000000e+05
    8.1397481263e-03    1.0120000000e+05
    8.1499796361e-03    1.0120000000e+05
    8.1599168479e-03    1.0120000000e+05
    8.1698587164e-03    1.0120000000e+05
    8.1798005849e-03    1.0120000000e+05
    8.1897443160e-03    1.0120000000e+05
    8.1999897957e-03    1.0120000000e+05
    8.2099502906e-03    1.0120000000e+05
    8.2199126482e-03    1.0120000000e+05
    8.2298796624e-03    1.0120000000e+05
    8.2398504019e-03    1.0120000000e+05
    8.2498146221e-03    1.0120000000e+05
    8.2597788423e-03    1.0120000000e+05
    8.2697505131e-03    1.0120000000e+05
    8.2797193900e-03    1.0120000000e+05
    8.2899853587e-03    1.0120000000e+05
    8.2999635488e-03    1.0120000000e+05
    8.3099519834e-03    1.0120000000e+05
    8.3199441433e-03    1.0120000000e+05
    8.3299409598e-03    1.0120000000e+05
    8.3399359137e-03    1.0120000000e+05
    8.3499280736e-03    1.0120000000e+05
    8.3599258214e-03    1.0120000000e+05
    8.3699310198e-03    1.0120000000e+05
    8.3799287677e-03    1.0120000000e+05
    8.3899339661e-03    1.0120000000e+05
    8.3999456838e-03    1.0120000000e+05
    8.4099629894e-03    1.0120000000e+05
    8.4199821576e-03    1.0120000000e+05
    8.4299966693e-03    1.0120000000e+05
    8.4397178143e-03    1.0120000000e+05
    8.4497332573e-03    1.0120000000e+05
    8.4597626701e-03    1.0120000000e+05
    8.4697958082e-03    1.0120000000e+05
    8.4798308089e-03    1.0120000000e+05
    8.4898741916e-03    1.0120000000e+05
    8.4999157116e-03    1.0120000000e+05
    8.5099581629e-03    1.0120000000e+05
    8.5199996829e-03    1.0120000000e+05
    8.5297450423e-03    1.0120000000e+05
    8.5397940129e-03    1.0120000000e+05
    8.5498625413e-03    1.0120000000e+05
    8.5599366575e-03    1.0120000000e+05
    8.5697118193e-03    1.0120000000e+05
    8.5797868669e-03    1.0120000000e+05
    8.5898600519e-03    1.0120000000e+05
    8.5999295115e-03    1.0120000000e+05
    8.6097046733e-03    1.0120000000e+05
    8.6197936907e-03    1.0120000000e+05
    8.6298882961e-03    1.0120000000e+05
    8.6399903521e-03    1.0120000000e+05
    8.6497981101e-03    1.0120000000e+05
    8.6599020287e-03    1.0120000000e+05
    8.6697069928e-03    1.0120000000e+05
    8.6798071861e-03    1.0120000000e+05
    8.6899055168e-03    1.0120000000e+05
    8.6997058243e-03    1.0120000000e+05
    8.7098022923e-03    1.0120000000e+05
    8.7199015543e-03    1.0120000000e+05
    8.7297037244e-03    1.0120000000e+05
    8.7398048490e-03    1.0120000000e+05
    8.7499059737e-03    1.0120000000e+05
    8.7597100064e-03    1.0120000000e+05
    8.7698101997e-03    1.0120000000e+05
    8.7799094617e-03    1.0120000000e+05
    8.7897116318e-03    1.0120000000e+05
    8.7998080999e-03    1.0120000000e+05
    8.8099054992e-03    1.0120000000e+05
    8.8197048753e-03    1.0120000000e+05
    8.8298022747e-03    1.0120000000e+05
    8.8398996741e-03    1.0120000000e+05
    8.8499961421e-03    1.0120000000e+05
    8.8597955182e-03    1.0120000000e+05
    8.8698929176e-03    1.0120000000e+05
    8.8799921796e-03    1.0120000000e+05
    8.8897971436e-03    1.0120000000e+05
    8.8998964056e-03    1.0120000000e+05
    8.9099975303e-03    1.0120000000e+05
    8.9198034257e-03    1.0120000000e+05
    8.9299017563e-03    1.0120000000e+05
    8.9397085831e-03    1.0120000000e+05
    8.9498180896e-03    1.0120000000e+05
    8.9599322528e-03    1.0120000000e+05
    8.9697558433e-03    1.0120000000e+05
    8.9798783883e-03    1.0120000000e+05
    8.9897075668e-03    1.0120000000e+05
    8.9998366311e-03    1.0120000000e+05
    9.0099675581e-03    1.0120000000e+05
    9.0198088437e-03    1.0120000000e+05
    9.0299565345e-03    1.0120000000e+05
    9.0398238972e-03    1.0120000000e+05
    9.0499920771e-03    1.0120000000e+05
    9.0598668903e-03    1.0120000000e+05
    9.0697398409e-03    1.0120000000e+05
    9.0799368918e-03    1.0120000000e+05
    9.0898405761e-03    1.0120000000e+05
    9.0997591615e-03    1.0120000000e+05
    9.1099794954e-03    1.0120000000e+05
    9.1199064627e-03    1.0120000000e+05
    9.1298427433e-03    1.0120000000e+05
    9.1397874057e-03    1.0120000000e+05
    9.1497423127e-03    1.0120000000e+05
    9.1597158462e-03    1.0120000000e+05
    9.1697117314e-03    1.0120000000e+05
    9.1797085479e-03    1.0120000000e+05
    9.1897118837e-03    1.0120000000e+05
    9.1997282580e-03    1.0120000000e+05
    9.2097474262e-03    1.0120000000e+05
    9.2197684571e-03    1.0120000000e+05
    9.2297978699e-03    1.0120000000e+05
    9.2398412526e-03    1.0120000000e+05
    9.2498911545e-03    1.0120000000e+05
    9.2599382624e-03    1.0120000000e+05
    9.2699918896e-03    1.0120000000e+05
    9.2797409743e-03    1.0120000000e+05
    9.2897871509e-03    1.0120000000e+05
    9.2998417094e-03    1.0120000000e+05
    9.3099027872e-03    1.0120000000e+05
    9.3199759722e-03    1.0120000000e+05
    9.3298349530e-03    1.0120000000e+05
    9.3398569152e-03    1.0120000000e+05
    9.3497633934e-03    1.0120000000e+05
    9.3598933890e-03    1.0120000000e+05
    9.3699200079e-03    1.0120000000e+05
    9.3798283488e-03    1.0120000000e+05
    9.3899462372e-03    1.0120000000e+05
    9.3999141827e-03    1.0120000000e+05
    9.4097070396e-03    1.0120000000e+05
    9.4196759164e-03    1.0120000000e+05
    9.4298180193e-03    1.0120000000e+05
    9.4397468492e-03    1.0120000000e+05
    9.4498330727e-03    1.0120000000e+05
    9.4596790150e-03    1.0120000000e+05
    9.4696693122e-03    1.0120000000e+05
    9.4798030332e-03    1.0120000000e+05
    9.4896666706e-03    1.0120000000e+05
    9.4996606931e-03    1.0120000000e+05
    9.5097823068e-03    1.0120000000e+05
    9.5195956528e-03    1.0120000000e+05
    9.5299603418e-03    1.0120000000e+05
    9.5395790413e-03    1.0120000000e+05
    9.5497509465e-03    1.0120000000e+05
    9.5595819876e-03    1.0120000000e+05
    9.5699569210e-03    1.0120000000e+05
    9.5799695700e-03    1.0120000000e+05
    9.5895929262e-03    1.0120000000e+05
    9.5997164026e-03    1.0120000000e+05
    9.6098678187e-03    1.0120000000e+05
    9.6195936203e-03    1.0120000000e+05
    9.6298325807e-03    1.0120000000e+05
    9.6396589652e-03    1.0120000000e+05
    9.6499994397e-03    1.0120000000e+05
    9.6599170938e-03    1.0120000000e+05
    9.6698990092e-03    1.0120000000e+05
    9.6799107268e-03    1.0120000000e+05
    9.6899578348e-03    1.0120000000e+05
    9.6995988861e-03    1.0120000000e+05
    9.7097754478e-03    1.0120000000e+05
    9.7199762240e-03    1.0120000000e+05
    9.7297467291e-03    1.0120000000e+05
    9.7395423800e-03    1.0120000000e+05
    9.7499107942e-03    1.0120000000e+05
    9.7597856075e-03    1.0120000000e+05
    9.7697535530e-03    1.0120000000e+05
    9.7797252238e-03    1.0120000000e+05
    9.7897490487e-03    1.0120000000e+05
    9.7997989506e-03    1.0120000000e+05
    9.8099596798e-03    1.0120000000e+05
    9.8195830360e-03    1.0120000000e+05
    9.8297363147e-03    1.0120000000e+05
    9.8399342969e-03    1.0120000000e+05
    9.8497103900e-03    1.0120000000e+05
    9.8594846204e-03    1.0120000000e+05
    9.8698278889e-03    1.0120000000e+05
    9.8797027022e-03    1.0120000000e+05
    9.8895942792e-03    1.0120000000e+05
    9.8995696753e-03    1.0120000000e+05
    9.9095208570e-03    1.0120000000e+05
    9.9195092916e-03    1.0120000000e+05
    9.9299987778e-03    1.0120000000e+05
    9.9395113066e-03    1.0120000000e+05
    9.9495844916e-03    1.0120000000e+05
    9.9596688524e-03    1.0120000000e+05
    9.9697839469e-03    1.0120000000e+05
    9.9799698219e-03    1.0120000000e+05
    9.9895810708e-03    1.0120000000e+05
    9.9998330697e-03    1.0120000000e+05
    1.0009499267e-02    1.0120000000e+05
    1.0019791313e-02    1.0120000000e+05
    1.0029522702e-02    1.0120000000e+05
    1.0039839894e-02    1.0120000000e+05
    1.0049620643e-02    1.0120000000e+05
    1.0059871711e-02    1.0120000000e+05
    1.0069968179e-02    1.0120000000e+05
    1.0079824366e-02    1.0120000000e+05
    1.0089818388e-02    1.0120000000e+05
    1.0099875741e-02    1.0120000000e+05
    1.0109948926e-02    1.0120000000e+05
    1.0119999759e-02    1.0120000000e+05
    1.0129983537e-02    1.0120000000e+05
    1.0139852762e-02    1.0120000000e+05
    1.0149928741e-02    1.0120000000e+05
    1.0159753263e-02    1.0120000000e+05
    1.0169911198e-02    1.0120000000e+05
    1.0179907084e-02    1.0120000000e+05
    1.0189861059e-02    1.0120000000e+05
    1.0199989192e-02    1.0120000000e+05
    1.0209891014e-02    1.0120000000e+05
    1.0219898075e-02    1.0120000000e+05
    1.0229943320e-02    1.0120000000e+05
    1.0239870287e-02    1.0120000000e+05
    1.0249882005e-02    1.0120000000e+05
    1.0259998962e-02    1.0120000000e+05
    1.0269938037e-02    1.0120000000e+05
    1.0279966518e-02    1.0120000000e+05
    1.0289857164e-02    1.0120000000e+05
    1.0299921967e-02    1.0120000000e+05
    1.0309950449e-02    1.0120000000e+05
    1.0319837369e-02    1.0120000000e+05
    1.0329953395e-02    1.0120000000e+05
    1.0339930654e-02    1.0120000000e+05
    1.0349928401e-02    1.0120000000e+05
    1.0359940119e-02    1.0120000000e+05
    1.0369931348e-02    1.0120000000e+05
    1.0379877873e-02    1.0120000000e+05
    1.0389964096e-02    1.0120000000e+05
    1.0399931110e-02    1.0120000000e+05
    1.0409998707e-02    1.0120000000e+05
    1.0419919156e-02    1.0120000000e+05
    1.0429909453e-02    1.0120000000e+05
    1.0439951904e-02    1.0120000000e+05
    1.0449809954e-02    1.0120000000e+05
    1.0459960438e-02    1.0120000000e+05
    1.0469912551e-02    1.0120000000e+05
    1.0479899123e-02    1.0120000000e+05
    1.0489921086e-02    1.0120000000e+05
    1.0499980301e-02    1.0120000000e+05
    1.0509820655e-02    1.0120000000e+05
    1.0519939475e-02    1.0120000000e+05
    1.0529834777e-02    1.0120000000e+05
    1.0539998300e-02    1.0120000000e+05
    1.0549939238e-02    1.0120000000e+05
    1.0559903458e-02    1.0120000000e+05
    1.0569890961e-02    1.0120000000e+05
    1.0579891503e-02    1.0120000000e+05
    1.0589918122e-02    1.0120000000e+05
    1.0599957779e-02    1.0120000000e+05
    1.0609758087e-02    1.0120000000e+05
    1.0619834065e-02    1.0120000000e+05
    1.0629918426e-02    1.0120000000e+05
    1.0639775544e-02    1.0120000000e+05
    1.0649891570e-02    1.0120000000e+05
    1.0659771040e-02    1.0120000000e+05
    1.0669927113e-02    1.0120000000e+05
    1.0679824278e-02    1.0120000000e+05
    1.0689747520e-02    1.0120000000e+05
    1.0699931532e-02    1.0120000000e+05
    1.0709884576e-02    1.0120000000e+05
    1.0719843209e-02    1.0120000000e+05
    1.0729802772e-02    1.0120000000e+05
    1.0739807971e-02    1.0120000000e+05
    1.0749814101e-02    1.0120000000e+05
    1.0759804398e-02    1.0120000000e+05
    1.0769828223e-02    1.0120000000e+05
    1.0779882781e-02    1.0120000000e+05
    1.0789928958e-02    1.0120000000e+05
    1.0799983516e-02    1.0120000000e+05
    1.0809812695e-02    1.0120000000e+05
    1.0819918476e-02    1.0120000000e+05
    1.0829762556e-02    1.0120000000e+05
    1.0839882307e-02    1.0120000000e+05
    1.0849766433e-02    1.0120000000e+05
    1.0859910399e-02    1.0120000000e+05
    1.0869789869e-02    1.0120000000e+05
    1.0879959911e-02    1.0120000000e+05
    1.0889892466e-02    1.0120000000e+05
    1.0899822228e-02    1.0120000000e+05
    1.0909757577e-02    1.0120000000e+05
    1.0919975117e-02    1.0120000000e+05
    1.0929945856e-02    1.0120000000e+05
    1.0939917527e-02    1.0120000000e+05
    1.0949895717e-02    1.0120000000e+05
    1.0959894396e-02    1.0120000000e+05
    1.0969902389e-02    1.0120000000e+05
    1.0979913175e-02    1.0120000000e+05
    1.0989939794e-02    1.0120000000e+05
    1.0999978520e-02    1.0120000000e+05
    1.1009756476e-02    1.0120000000e+05
    1.1019803584e-02    1.0120000000e+05
    1.1029866524e-02    1.0120000000e+05
    1.1039940640e-02    1.0120000000e+05
    1.1049752124e-02    1.0120000000e+05
    1.1059834622e-02    1.0120000000e+05
    1.1069928296e-02    1.0120000000e+05
    1.1079768650e-02    1.0120000000e+05
    1.1089880019e-02    1.0120000000e+05
    1.1099994183e-02    1.0120000000e+05
    1.1109853163e-02    1.0120000000e+05
    1.1119985953e-02    1.0120000000e+05
    1.1129857041e-02    1.0120000000e+05
    1.1139736511e-02    1.0120000000e+05
    1.1149890721e-02    1.0120000000e+05
    1.1159781367e-02    1.0120000000e+05
    1.1169944890e-02    1.0120000000e+05
    1.1179853231e-02    1.0120000000e+05
    1.1189766228e-02    1.0120000000e+05
    1.1199949309e-02    1.0120000000e+05
    1.1209867895e-02    1.0120000000e+05
    1.1219792999e-02    1.0120000000e+05
    1.1229992844e-02    1.0120000000e+05
    1.1239931919e-02    1.0120000000e+05
    1.1249873787e-02    1.0120000000e+05
    1.1259819381e-02    1.0120000000e+05
    1.1269769631e-02    1.0120000000e+05
    1.1279989965e-02    1.0120000000e+05
    1.1289944872e-02    1.0120000000e+05
    1.1299905367e-02    1.0120000000e+05
    1.1309870519e-02    1.0120000000e+05
    1.1319840327e-02    1.0120000000e+05
    1.1329818517e-02    1.0120000000e+05
    1.1339798570e-02    1.0120000000e+05
    1.1349778622e-02    1.0120000000e+05
    1.1359757744e-02    1.0120000000e+05
    1.1369735934e-02    1.0120000000e+05
    1.1379985139e-02    1.0120000000e+05
    1.1389964260e-02    1.0120000000e+05
    1.1399943382e-02    1.0120000000e+05
    1.1409924366e-02    1.0120000000e+05
    1.1419907212e-02    1.0120000000e+05
    1.1429891922e-02    1.0120000000e+05
    1.1439877562e-02    1.0120000000e+05
    1.1449863203e-02    1.0120000000e+05
    1.1459850706e-02    1.0120000000e+05
    1.1469838209e-02    1.0120000000e+05
    1.1479826644e-02    1.0120000000e+05
    1.1489815079e-02    1.0120000000e+05
    1.1499803513e-02    1.0120000000e+05
    1.1509792879e-02    1.0120000000e+05
    1.1519781314e-02    1.0120000000e+05
    1.1529770680e-02    1.0120000000e+05
    1.1539760046e-02    1.0120000000e+05
    1.1549750343e-02    1.0120000000e+05
    1.1559741572e-02    1.0120000000e+05
    1.1569732800e-02    1.0120000000e+05
    1.1579995044e-02    1.0120000000e+05
    1.1589988135e-02    1.0120000000e+05
    1.1599981226e-02    1.0120000000e+05
    1.1609975249e-02    1.0120000000e+05
    1.1619970202e-02    1.0120000000e+05
    1.1629965156e-02    1.0120000000e+05
    1.1639960110e-02    1.0120000000e+05
    1.1649955995e-02    1.0120000000e+05
    1.1659951881e-02    1.0120000000e+05
    1.1669947766e-02    1.0120000000e+05
    1.1679944582e-02    1.0120000000e+05
    1.1689941399e-02    1.0120000000e+05
    1.1699939147e-02    1.0120000000e+05
    1.1709936894e-02    1.0120000000e+05
    1.1719936505e-02    1.0120000000e+05
    1.1729938909e-02    1.0120000000e+05
    1.1739945970e-02    1.0120000000e+05
    1.1749958619e-02    1.0120000000e+05
    1.1759971268e-02    1.0120000000e+05
    1.1769983917e-02    1.0120000000e+05
    1.1779994704e-02    1.0120000000e+05
    1.1789733544e-02    1.0120000000e+05
    1.1799743399e-02    1.0120000000e+05
    1.1809752323e-02    1.0120000000e+05
    1.1819762178e-02    1.0120000000e+05
    1.1829775758e-02    1.0120000000e+05
    1.1839792132e-02    1.0120000000e+05
    1.1849807575e-02    1.0120000000e+05
    1.1859823950e-02    1.0120000000e+05
    1.1869839393e-02    1.0120000000e+05
    1.1879854836e-02    1.0120000000e+05
    1.1889870279e-02    1.0120000000e+05
    1.1899886653e-02    1.0120000000e+05
    1.1909903027e-02    1.0120000000e+05
    1.1919919401e-02    1.0120000000e+05
    1.1929935776e-02    1.0120000000e+05
    1.1939953081e-02    1.0120000000e+05
    1.1949970387e-02    1.0120000000e+05
    1.1959986761e-02    1.0120000000e+05
    1.1969733052e-02    1.0120000000e+05
    1.1979749426e-02    1.0120000000e+05
    1.1989766732e-02    1.0120000000e+05
    1.1999784037e-02    1.0120000000e+05
    1.2009801343e-02    1.0120000000e+05
    1.2019819580e-02    1.0120000000e+05
    1.2029836886e-02    1.0120000000e+05
    1.2039854191e-02    1.0120000000e+05
    1.2049871497e-02    1.0120000000e+05
    1.2059889734e-02    1.0120000000e+05
    1.2069907039e-02    1.0120000000e+05
    1.2079925276e-02    1.0120000000e+05
    1.2089943513e-02    1.0120000000e+05
    1.2099960819e-02    1.0120000000e+05
    1.2109979056e-02    1.0120000000e+05
    1.2119996361e-02    1.0120000000e+05
    1.2129744515e-02    1.0120000000e+05
    1.2139762752e-02    1.0120000000e+05
    1.2149780989e-02    1.0120000000e+05
    1.2159799226e-02    1.0120000000e+05
    1.2169817463e-02    1.0120000000e+05
    1.2179835699e-02    1.0120000000e+05
    1.2189853936e-02    1.0120000000e+05
    1.2199873105e-02    1.0120000000e+05
    1.2209891342e-02    1.0120000000e+05
    1.2219909579e-02    1.0120000000e+05
    1.2229928747e-02    1.0120000000e+05
    1.2239946984e-02    1.0120000000e+05
    1.2249966152e-02    1.0120000000e+05
    1.2259985320e-02    1.0120000000e+05
    1.2269733474e-02    1.0120000000e+05
    1.2279752642e-02    1.0120000000e+05
    1.2289770879e-02    1.0120000000e+05
    1.2299790978e-02    1.0120000000e+05
    1.2309810147e-02    1.0120000000e+05
    1.2319829315e-02    1.0120000000e+05
    1.2329848483e-02    1.0120000000e+05
    1.2339867651e-02    1.0120000000e+05
    1.2349886820e-02    1.0120000000e+05
    1.2359906919e-02    1.0120000000e+05
    1.2369926088e-02    1.0120000000e+05
    1.2379946187e-02    1.0120000000e+05
    1.2389967218e-02    1.0120000000e+05
    1.2399987318e-02    1.0120000000e+05
    1.2409736402e-02    1.0120000000e+05
    1.2419756502e-02    1.0120000000e+05
    1.2429776601e-02    1.0120000000e+05
    1.2439797632e-02    1.0120000000e+05
    1.2449818663e-02    1.0120000000e+05
    1.2459839694e-02    1.0120000000e+05
    1.2469860725e-02    1.0120000000e+05
    1.2479882687e-02    1.0120000000e+05
    1.2489904650e-02    1.0120000000e+05
    1.2499925680e-02    1.0120000000e+05
    1.2509947643e-02    1.0120000000e+05
    1.2519968674e-02    1.0120000000e+05
    1.2529990636e-02    1.0120000000e+05
    1.2539741583e-02    1.0120000000e+05
    1.2549764477e-02    1.0120000000e+05
    1.2559786439e-02    1.0120000000e+05
    1.2569810264e-02    1.0120000000e+05
    1.2579833157e-02    1.0120000000e+05
    1.2589856982e-02    1.0120000000e+05
    1.2599880807e-02    1.0120000000e+05
    1.2609903701e-02    1.0120000000e+05
    1.2619927526e-02    1.0120000000e+05
    1.2629951350e-02    1.0120000000e+05
    1.2639975175e-02    1.0120000000e+05
    1.2649999000e-02    1.0120000000e+05
    1.2659752741e-02    1.0120000000e+05
    1.2669777498e-02    1.0120000000e+05
    1.2679801323e-02    1.0120000000e+05
    1.2689826079e-02    1.0120000000e+05
    1.2699850835e-02    1.0120000000e+05
    1.2709876522e-02    1.0120000000e+05
    1.2719901279e-02    1.0120000000e+05
    1.2729926966e-02    1.0120000000e+05
    1.2739953585e-02    1.0120000000e+05
    1.2749979272e-02    1.0120000000e+05
    1.2759734876e-02    1.0120000000e+05
    1.2769761495e-02    1.0120000000e+05
    1.2779788114e-02    1.0120000000e+05
    1.2789815664e-02    1.0120000000e+05
    1.2799842283e-02    1.0120000000e+05
    1.2809869833e-02    1.0120000000e+05
    1.2819896452e-02    1.0120000000e+05
    1.2829924002e-02    1.0120000000e+05
    1.2839950621e-02    1.0120000000e+05
    1.2849979103e-02    1.0120000000e+05
    1.2859735638e-02    1.0120000000e+05
    1.2869764119e-02    1.0120000000e+05
    1.2879792601e-02    1.0120000000e+05
    1.2889822014e-02    1.0120000000e+05
    1.2899850495e-02    1.0120000000e+05
    1.2909879908e-02    1.0120000000e+05
    1.2919908389e-02    1.0120000000e+05
    1.2929937802e-02    1.0120000000e+05
    1.2939967215e-02    1.0120000000e+05
    1.2949997559e-02    1.0120000000e+05
    1.2959755957e-02    1.0120000000e+05
    1.2969786301e-02    1.0120000000e+05
    1.2979816645e-02    1.0120000000e+05
    1.2989846990e-02    1.0120000000e+05
    1.2999878265e-02    1.0120000000e+05
    1.3009908609e-02    1.0120000000e+05
    1.3019939885e-02    1.0120000000e+05
    1.3029971160e-02    1.0120000000e+05
    1.3039731421e-02    1.0120000000e+05
    1.3049763627e-02    1.0120000000e+05
    1.3059795834e-02    1.0120000000e+05
    1.3069828041e-02    1.0120000000e+05
    1.3079860248e-02    1.0120000000e+05
    1.3089892454e-02    1.0120000000e+05
    1.3099925593e-02    1.0120000000e+05
    1.3109958731e-02    1.0120000000e+05
    1.3119991869e-02    1.0120000000e+05
    1.3129753992e-02    1.0120000000e+05
    1.3139788061e-02    1.0120000000e+05
    1.3149821199e-02    1.0120000000e+05
    1.3159855269e-02    1.0120000000e+05
    1.3169889338e-02    1.0120000000e+05
    1.3179924339e-02    1.0120000000e+05
    1.3189959340e-02    1.0120000000e+05
    1.3199994341e-02    1.0120000000e+05
    1.3209757395e-02    1.0120000000e+05
    1.3219792396e-02    1.0120000000e+05
    1.3229827397e-02    1.0120000000e+05
    1.3239863329e-02    1.0120000000e+05
    1.3249899261e-02    1.0120000000e+05
    1.3259935193e-02    1.0120000000e+05
    1.3269972056e-02    1.0120000000e+05
    1.3279736042e-02    1.0120000000e+05
    1.3289772905e-02    1.0120000000e+05
    1.3299808837e-02    1.0120000000e+05
    1.3309846632e-02    1.0120000000e+05
    1.3319883496e-02    1.0120000000e+05
    1.3329920359e-02    1.0120000000e+05
    1.3339958154e-02    1.0120000000e+05
    1.3349995017e-02    1.0120000000e+05
    1.3359761797e-02    1.0120000000e+05
    1.3369799592e-02    1.0120000000e+05
    1.3379837386e-02    1.0120000000e+05
    1.3389876112e-02    1.0120000000e+05
    1.3399914838e-02    1.0120000000e+05
    1.3409952633e-02    1.0120000000e+05
    1.3419991359e-02    1.0120000000e+05
    1.3429759070e-02    1.0120000000e+05
    1.3439797796e-02    1.0120000000e+05
    1.3449837454e-02    1.0120000000e+05
    1.3459876180e-02    1.0120000000e+05
    1.3469915837e-02    1.0120000000e+05
    1.3479955494e-02    1.0120000000e+05
    1.3489995152e-02    1.0120000000e+05
    1.3499763794e-02    1.0120000000e+05
    1.3509803452e-02    1.0120000000e+05
    1.3519844040e-02    1.0120000000e+05
    1.3529884629e-02    1.0120000000e+05
    1.3539925218e-02    1.0120000000e+05
    1.3549965806e-02    1.0120000000e+05
    1.3559734449e-02    1.0120000000e+05
    1.3569775969e-02    1.0120000000e+05
    1.3579816557e-02    1.0120000000e+05
    1.3589858077e-02    1.0120000000e+05
    1.3599899597e-02    1.0120000000e+05
    1.3609941117e-02    1.0120000000e+05
    1.3619982637e-02    1.0120000000e+05
    1.3629753143e-02    1.0120000000e+05
    1.3639794663e-02    1.0120000000e+05
    1.3649837114e-02    1.0120000000e+05
    1.3659878634e-02    1.0120000000e+05
    1.3669921085e-02    1.0120000000e+05
    1.3679963537e-02    1.0120000000e+05
    1.3689734973e-02    1.0120000000e+05
    1.3699777424e-02    1.0120000000e+05
    1.3709819876e-02    1.0120000000e+05
    1.3719863258e-02    1.0120000000e+05
    1.3729906641e-02    1.0120000000e+05
    1.3739949092e-02    1.0120000000e+05
    1.3749992475e-02    1.0120000000e+05
    1.3759764843e-02    1.0120000000e+05
    1.3769808225e-02    1.0120000000e+05
    1.3779851608e-02    1.0120000000e+05
    1.3789895922e-02    1.0120000000e+05
    1.3799940236e-02    1.0120000000e+05
    1.3809983619e-02    1.0120000000e+05
    1.3819756918e-02    1.0120000000e+05
    1.3829801232e-02    1.0120000000e+05
    1.3839845546e-02    1.0120000000e+05
    1.3849889860e-02    1.0120000000e+05
    1.3859934174e-02    1.0120000000e+05
    1.3869979419e-02    1.0120000000e+05
    1.3879752718e-02    1.0120000000e+05
    1.3889797032e-02    1.0120000000e+05
    1.3899842277e-02    1.0120000000e+05
    1.3909887522e-02    1.0120000000e+05
    1.3919932768e-02    1.0120000000e+05
    1.3929978013e-02    1.0120000000e+05
    1.3939752243e-02    1.0120000000e+05
    1.3949797489e-02    1.0120000000e+05
    1.3959843665e-02    1.0120000000e+05
    1.3969888911e-02    1.0120000000e+05
    1.3979935087e-02    1.0120000000e+05
    1.3989981264e-02    1.0120000000e+05
    1.3999755494e-02    1.0120000000e+05
    1.4009801671e-02    1.0120000000e+05
    1.4019847848e-02    1.0120000000e+05
    1.4029894024e-02    1.0120000000e+05
    1.4039941132e-02    1.0120000000e+05
    1.4049987309e-02    1.0120000000e+05
    1.4059762470e-02    1.0120000000e+05
    1.4069808647e-02    1.0120000000e+05
    1.4079854824e-02    1.0120000000e+05
    1.4089901932e-02    1.0120000000e+05
    1.4099949040e-02    1.0120000000e+05
    1.4109995216e-02    1.0120000000e+05
    1.4119771309e-02    1.0120000000e+05
    1.4129818417e-02    1.0120000000e+05
    1.4139865525e-02    1.0120000000e+05
    1.4149912633e-02    1.0120000000e+05
    1.4159959741e-02    1.0120000000e+05
    1.4169734903e-02    1.0120000000e+05
    1.4179782942e-02    1.0120000000e+05
    1.4189830050e-02    1.0120000000e+05
    1.4199877158e-02    1.0120000000e+05
    1.4209924266e-02    1.0120000000e+05
    1.4219972305e-02    1.0120000000e+05
    1.4229748398e-02    1.0120000000e+05
    1.4239795506e-02    1.0120000000e+05
    1.4249843545e-02    1.0120000000e+05
    1.4259890653e-02    1.0120000000e+05
    1.4269938692e-02    1.0120000000e+05
    1.4279985800e-02    1.0120000000e+05
    1.4289761893e-02    1.0120000000e+05
    1.4299809933e-02    1.0120000000e+05
    1.4309857041e-02    1.0120000000e+05
    1.4319905080e-02    1.0120000000e+05
    1.4329953119e-02    1.0120000000e+05
    1.4339729212e-02    1.0120000000e+05
    1.4349777251e-02    1.0120000000e+05
    1.4359824359e-02    1.0120000000e+05
    1.4369872399e-02    1.0120000000e+05
    1.4379920438e-02    1.0120000000e+05
    1.4389967546e-02    1.0120000000e+05
    1.4399744570e-02    1.0120000000e+05
    1.4409791678e-02    1.0120000000e+05
    1.4419839717e-02    1.0120000000e+05
    1.4429887757e-02    1.0120000000e+05
    1.4439934865e-02    1.0120000000e+05
    1.4449982904e-02    1.0120000000e+05
    1.4459758997e-02    1.0120000000e+05
    1.4469807036e-02    1.0120000000e+05
    1.4479855075e-02    1.0120000000e+05
    1.4489902183e-02    1.0120000000e+05
    1.4499950223e-02    1.0120000000e+05
    1.4509997331e-02    1.0120000000e+05
    1.4519774355e-02    1.0120000000e+05
    1.4529821463e-02    1.0120000000e+05
    1.4539869502e-02    1.0120000000e+05
    1.4549916610e-02    1.0120000000e+05
    1.4559964649e-02    1.0120000000e+05
    1.4569740742e-02    1.0120000000e+05
    1.4579788782e-02    1.0120000000e+05
    1.4589835890e-02    1.0120000000e+05
    1.4599883929e-02    1.0120000000e+05
    1.4609931037e-02    1.0120000000e+05
    1.4619979076e-02    1.0120000000e+05
    1.4629754238e-02    1.0120000000e+05
    1.4639802277e-02    1.0120000000e+05
    1.4649849385e-02    1.0120000000e+05
    1.4659897424e-02    1.0120000000e+05
    1.4669944532e-02    1.0120000000e+05
    1.4679991640e-02    1.0120000000e+05
    1.4689767733e-02    1.0120000000e+05
    1.4699815772e-02    1.0120000000e+05
    1.4709862880e-02    1.0120000000e+05
    1.4719909988e-02    1.0120000000e+05
    1.4729957096e-02    1.0120000000e+05
    1.4739733189e-02    1.0120000000e+05
    1.4749780297e-02    1.0120000000e+05
    1.4759827405e-02    1.0120000000e+05
    1.4769875444e-02    1.0120000000e+05
    1.4779922552e-02    1.0120000000e+05
    1.4789969660e-02    1.0120000000e+05
    1.4799744822e-02    1.0120000000e+05
    1.4809791930e-02    1.0120000000e+05
    1.4819839038e-02    1.0120000000e+05
    1.4829886146e-02    1.0120000000e+05
    1.4839934185e-02    1.0120000000e+05
    1.4849981293e-02    1.0120000000e+05
    1.4859756455e-02    1.0120000000e+05
    1.4869803563e-02    1.0120000000e+05
    1.4879851602e-02    1.0120000000e+05
    1.4889899641e-02    1.0120000000e+05
    1.4899947681e-02    1.0120000000e+05
    1.4909995720e-02    1.0120000000e+05
    1.4919772744e-02    1.0120000000e+05
    1.4929820783e-02    1.0120000000e+05
    1.4939869754e-02    1.0120000000e+05
    1.4949918725e-02    1.0120000000e+05
    1.4959968626e-02    1.0120000000e+05
    1.4969747514e-02    1.0120000000e+05
    1.4979797415e-02    1.0120000000e+05
    1.4989848249e-02    1.0120000000e+05
    1.4999899082e-02    1.0120000000e+05
    1.5009950846e-02    1.0120000000e+05
    1.5019729733e-02    1.0120000000e+05
    1.5029781498e-02    1.0120000000e+05
    1.5039834194e-02    1.0120000000e+05
    1.5049886890e-02    1.0120000000e+05
    1.5059940517e-02    1.0120000000e+05
    1.5069994144e-02    1.0120000000e+05
    1.5079776756e-02    1.0120000000e+05
    1.5089831315e-02    1.0120000000e+05
    1.5099886805e-02    1.0120000000e+05
    1.5109942295e-02    1.0120000000e+05
    1.5119998716e-02    1.0120000000e+05
    1.5129783191e-02    1.0120000000e+05
    1.5139839612e-02    1.0120000000e+05
    1.5149896033e-02    1.0120000000e+05
    1.5159953386e-02    1.0120000000e+05
    1.5169738792e-02    1.0120000000e+05
    1.5179797076e-02    1.0120000000e+05
    1.5189855359e-02    1.0120000000e+05
    1.5199915506e-02    1.0120000000e+05
    1.5209976584e-02    1.0120000000e+05
    1.5219765715e-02    1.0120000000e+05
    1.5229828656e-02    1.0120000000e+05
    1.5239892527e-02    1.0120000000e+05
    1.5249956399e-02    1.0120000000e+05
    1.5259748325e-02    1.0120000000e+05
    1.5269812196e-02    1.0120000000e+05
    1.5279877000e-02    1.0120000000e+05
    1.5289941803e-02    1.0120000000e+05
    1.5299735591e-02    1.0120000000e+05
    1.5309801325e-02    1.0120000000e+05
    1.5319868922e-02    1.0120000000e+05
    1.5329936519e-02    1.0120000000e+05
    1.5339733101e-02    1.0120000000e+05
    1.5349803492e-02    1.0120000000e+05
    1.5359874815e-02    1.0120000000e+05
    1.5369948000e-02    1.0120000000e+05
    1.5379749238e-02    1.0120000000e+05
    1.5389823355e-02    1.0120000000e+05
    1.5399899334e-02    1.0120000000e+05
    1.5409976244e-02    1.0120000000e+05
    1.5419781208e-02    1.0120000000e+05
    1.5429859050e-02    1.0120000000e+05
    1.5439936891e-02    1.0120000000e+05
    1.5449744649e-02    1.0120000000e+05
    1.5459825285e-02    1.0120000000e+05
    1.5469905920e-02    1.0120000000e+05
    1.5479988419e-02    1.0120000000e+05
    1.5489799902e-02    1.0120000000e+05
    1.5499885194e-02    1.0120000000e+05
    1.5509972349e-02    1.0120000000e+05
    1.5519789420e-02    1.0120000000e+05
    1.5529879369e-02    1.0120000000e+05
    1.5539972112e-02    1.0120000000e+05
    1.5549792908e-02    1.0120000000e+05
    1.5559887514e-02    1.0120000000e+05
    1.5569983982e-02    1.0120000000e+05
    1.5579808503e-02    1.0120000000e+05
    1.5589906834e-02    1.0120000000e+05
    1.5599733219e-02    1.0120000000e+05
    1.5609835275e-02    1.0120000000e+05
    1.5619939193e-02    1.0120000000e+05
    1.5629772097e-02    1.0120000000e+05
    1.5639878809e-02    1.0120000000e+05
    1.5649987385e-02    1.0120000000e+05
    1.5659825876e-02    1.0120000000e+05
    1.5669940040e-02    1.0120000000e+05
    1.5679780394e-02    1.0120000000e+05
    1.5689896420e-02    1.0120000000e+05
    1.5699740499e-02    1.0120000000e+05
    1.5709860250e-02    1.0120000000e+05
    1.5719981864e-02    1.0120000000e+05
    1.5729831532e-02    1.0120000000e+05
    1.5739958733e-02    1.0120000000e+05
    1.5749812126e-02    1.0120000000e+05
    1.5759943053e-02    1.0120000000e+05
    1.5769800171e-02    1.0120000000e+05
    1.5779934824e-02    1.0120000000e+05
    1.5789795667e-02    1.0120000000e+05
    1.5799932182e-02    1.0120000000e+05
    1.5809798613e-02    1.0120000000e+05
    1.5819940716e-02    1.0120000000e+05
    1.5829810873e-02    1.0120000000e+05
    1.5839956701e-02    1.0120000000e+05
    1.5849830583e-02    1.0120000000e+05
    1.5859980136e-02    1.0120000000e+05
    1.5869859606e-02    1.0120000000e+05
    1.5879739076e-02    1.0120000000e+05
    1.5889894217e-02    1.0120000000e+05
    1.5899777412e-02    1.0120000000e+05
    1.5909936279e-02    1.0120000000e+05
    1.5919825062e-02    1.0120000000e+05
    1.5929989517e-02    1.0120000000e+05
    1.5939883888e-02    1.0120000000e+05
    1.5949778259e-02    1.0120000000e+05
    1.5959950164e-02    1.0120000000e+05
    1.5969850123e-02    1.0120000000e+05
    1.5979751945e-02    1.0120000000e+05
    1.5989929438e-02    1.0120000000e+05
    1.5999833122e-02    1.0120000000e+05
    1.6009738669e-02    1.0120000000e+05
    1.6019923612e-02    1.0120000000e+05
    1.6029832885e-02    1.0120000000e+05
    1.6039745882e-02    1.0120000000e+05
    1.6049936414e-02    1.0120000000e+05
    1.6059853137e-02    1.0120000000e+05
    1.6069773585e-02    1.0120000000e+05
    1.6079973429e-02    1.0120000000e+05
    1.6089899465e-02    1.0120000000e+05
    1.6099827364e-02    1.0120000000e+05
    1.6109757125e-02    1.0120000000e+05
    1.6119964421e-02    1.0120000000e+05
    1.6129899770e-02    1.0120000000e+05
    1.6139835119e-02    1.0120000000e+05
    1.6149770468e-02    1.0120000000e+05
    1.6159987077e-02    1.0120000000e+05
    1.6169928014e-02    1.0120000000e+05
    1.6179872677e-02    1.0120000000e+05
    1.6189819202e-02    1.0120000000e+05
    1.6199767590e-02    1.0120000000e+05
    1.6209991649e-02    1.0120000000e+05
    1.6219945624e-02    1.0120000000e+05
    1.6229901463e-02    1.0120000000e+05
    1.6239857301e-02    1.0120000000e+05
    1.6249818727e-02    1.0120000000e+05
    1.6259778291e-02    1.0120000000e+05
    1.6269741580e-02    1.0120000000e+05
    1.6279986128e-02    1.0120000000e+05
    1.6289955005e-02    1.0120000000e+05
    1.6299925745e-02    1.0120000000e+05
    1.6309900209e-02    1.0120000000e+05
    1.6319870949e-02    1.0120000000e+05
    1.6329845414e-02    1.0120000000e+05
    1.6339829192e-02    1.0120000000e+05
    1.6349811107e-02    1.0120000000e+05
    1.6359794885e-02    1.0120000000e+05
    1.6369782388e-02    1.0120000000e+05
    1.6379769892e-02    1.0120000000e+05
    1.6389757395e-02    1.0120000000e+05
    1.6399754211e-02    1.0120000000e+05
    1.6409745440e-02    1.0120000000e+05
    1.6419742256e-02    1.0120000000e+05
    1.6429744661e-02    1.0120000000e+05
    1.6439747065e-02    1.0120000000e+05
    1.6449755058e-02    1.0120000000e+05
    1.6459763050e-02    1.0120000000e+05
    1.6469769180e-02    1.0120000000e+05
    1.6479777172e-02    1.0120000000e+05
    1.6489794478e-02    1.0120000000e+05
    1.6499809921e-02    1.0120000000e+05
    1.6509830952e-02    1.0120000000e+05
    1.6519855708e-02    1.0120000000e+05
    1.6529880464e-02    1.0120000000e+05
    1.6539910808e-02    1.0120000000e+05
    1.6549943015e-02    1.0120000000e+05
    1.6559973359e-02    1.0120000000e+05
    1.6569724306e-02    1.0120000000e+05
    1.6579763964e-02    1.0120000000e+05
    1.6589799896e-02    1.0120000000e+05
    1.6599845141e-02    1.0120000000e+05
    1.6609894112e-02    1.0120000000e+05
    1.6619943082e-02    1.0120000000e+05
    1.6629993916e-02    1.0120000000e+05
    1.6639770940e-02    1.0120000000e+05
    1.6649825498e-02    1.0120000000e+05
    1.6659880057e-02    1.0120000000e+05
    1.6669942066e-02    1.0120000000e+05
    1.6679724678e-02    1.0120000000e+05
    1.6689794138e-02    1.0120000000e+05
    1.6699867323e-02    1.0120000000e+05
    1.6709942371e-02    1.0120000000e+05
    1.6719736159e-02    1.0120000000e+05
    1.6729811206e-02    1.0120000000e+05
    1.6739886254e-02    1.0120000000e+05
    1.6749961302e-02    1.0120000000e+05
    1.6759760678e-02    1.0120000000e+05
    1.6769843176e-02    1.0120000000e+05
    1.6779931262e-02    1.0120000000e+05
    1.6789739951e-02    1.0120000000e+05
    1.6799829900e-02    1.0120000000e+05
    1.6809916124e-02    1.0120000000e+05
    1.6819726676e-02    1.0120000000e+05
    1.6829816625e-02    1.0120000000e+05
    1.6839908436e-02    1.0120000000e+05
    1.6849724576e-02    1.0120000000e+05
    1.6859821975e-02    1.0120000000e+05
    1.6869926825e-02    1.0120000000e+05
    1.6879752278e-02    1.0120000000e+05
    1.6889853403e-02    1.0120000000e+05
    1.6899948940e-02    1.0120000000e+05
    1.6909761354e-02    1.0120000000e+05
    1.6919847578e-02    1.0120000000e+05
    1.6929926351e-02    1.0120000000e+05
    1.6939723864e-02    1.0120000000e+05
    1.6949795187e-02    1.0120000000e+05
    1.6959860921e-02    1.0120000000e+05
    1.6969937831e-02    1.0120000000e+05
    1.6979876906e-02    1.0120000000e+05
    1.6989991069e-02    1.0120000000e+05
    1.6999984160e-02    1.0120000000e+05
    1.7009835690e-02    1.0120000000e+05
    1.7019841820e-02    1.0120000000e+05
    1.7029998824e-02    1.0120000000e+05
    1.7039991915e-02    1.0120000000e+05
    1.7049804330e-02    1.0120000000e+05
    1.7059748992e-02    1.0120000000e+05
    1.7069829628e-02    1.0120000000e+05
    1.7079712823e-02    1.0120000000e+05
    1.7089711502e-02    1.0120000000e+05
    1.7099836841e-02    1.0120000000e+05
    1.7109742388e-02    1.0120000000e+05
    1.7119767144e-02    1.0120000000e+05
    1.7129896209e-02    1.0120000000e+05
    1.7139781266e-02    1.0120000000e+05
    1.7149772495e-02    1.0120000000e+05
    1.7159868032e-02    1.0120000000e+05
    1.7169691622e-02    1.0120000000e+05
    1.7179975286e-02    1.0120000000e+05
    1.7189981416e-02    1.0120000000e+05
    1.7199698836e-02    1.0120000000e+05
    1.7209853977e-02    1.0120000000e+05
    1.7219688743e-02    1.0120000000e+05
    1.7229812220e-02    1.0120000000e+05
    1.7239784822e-02    1.0120000000e+05
    1.7249954864e-02    1.0120000000e+05
    1.7259856686e-02    1.0120000000e+05
    1.7269773409e-02    1.0120000000e+05
    1.7279971391e-02    1.0120000000e+05
    1.7289916053e-02    1.0120000000e+05
    1.7299875617e-02    1.0120000000e+05
    1.7309850082e-02    1.0120000000e+05
    1.7319837585e-02    1.0120000000e+05
    1.7329828814e-02    1.0120000000e+05
    1.7339823768e-02    1.0120000000e+05
    1.7349818721e-02    1.0120000000e+05
    1.7359815538e-02    1.0120000000e+05
    1.7369814217e-02    1.0120000000e+05
    1.7379814759e-02    1.0120000000e+05
    1.7389815301e-02    1.0120000000e+05
    1.7399815843e-02    1.0120000000e+05
    1.7409816384e-02    1.0120000000e+05
    1.7419818789e-02    1.0120000000e+05
    1.7429819331e-02    1.0120000000e+05
    1.7439821735e-02    1.0120000000e+05
    1.7449822277e-02    1.0120000000e+05
    1.7459824681e-02    1.0120000000e+05
    1.7469825223e-02    1.0120000000e+05
    1.7479827628e-02    1.0120000000e+05
    1.7489828169e-02    1.0120000000e+05
    1.7499828711e-02    1.0120000000e+05
    1.7509829253e-02    1.0120000000e+05
    1.7519829795e-02    1.0120000000e+05
    1.7529830337e-02    1.0120000000e+05
    1.7539830878e-02    1.0120000000e+05
    1.7549831420e-02    1.0120000000e+05
    1.7559831962e-02    1.0120000000e+05
    1.7569830641e-02    1.0120000000e+05
    1.7579829320e-02    1.0120000000e+05
    1.7589829862e-02    1.0120000000e+05
    1.7599828541e-02    1.0120000000e+05
    1.7609827220e-02    1.0120000000e+05
    1.7619825900e-02    1.0120000000e+05
    1.7629824579e-02    1.0120000000e+05
    1.7639823258e-02    1.0120000000e+05
    1.7649821937e-02    1.0120000000e+05
    1.7659820616e-02    1.0120000000e+05
    1.7669817433e-02    1.0120000000e+05
    1.7679816112e-02    1.0120000000e+05
    1.7689812928e-02    1.0120000000e+05
    1.7699811608e-02    1.0120000000e+05
    1.7709808424e-02    1.0120000000e+05
    1.7719805241e-02    1.0120000000e+05
    1.7729803920e-02    1.0120000000e+05
    1.7739800736e-02    1.0120000000e+05
    1.7749801278e-02    1.0120000000e+05
    1.7759799957e-02    1.0120000000e+05
    1.7769800499e-02    1.0120000000e+05
    1.7779801041e-02    1.0120000000e+05
    1.7789801583e-02    1.0120000000e+05
    1.7799809575e-02    1.0120000000e+05
    1.7809821293e-02    1.0120000000e+05
    1.7819834873e-02    1.0120000000e+05
    1.7829852179e-02    1.0120000000e+05
    1.7839871347e-02    1.0120000000e+05
    1.7849896103e-02    1.0120000000e+05
    1.7859933898e-02    1.0120000000e+05
    1.7869982868e-02    1.0120000000e+05
    1.7879774794e-02    1.0120000000e+05
    1.7889840528e-02    1.0120000000e+05
    1.7899911851e-02    1.0120000000e+05
    1.7909735441e-02    1.0120000000e+05
    1.7919845879e-02    1.0120000000e+05
    1.7929974943e-02    1.0120000000e+05
    1.7939852551e-02    1.0120000000e+05
    1.7949741334e-02    1.0120000000e+05
    1.7959907651e-02    1.0120000000e+05
    1.7969824374e-02    1.0120000000e+05
    1.7979765311e-02    1.0120000000e+05
    1.7989734188e-02    1.0120000000e+05
    1.7999991775e-02    1.0120000000e+05
    1.8009988591e-02    1.0120000000e+05
    1.8019994721e-02    1.0120000000e+05
    1.8029745668e-02    1.0120000000e+05
    1.8039785326e-02    1.0120000000e+05
    1.8049849197e-02    1.0120000000e+05
    1.8059933558e-02    1.0120000000e+05
    1.8069760874e-02    1.0120000000e+05
    1.8079869449e-02    1.0120000000e+05
    1.8089989200e-02    1.0120000000e+05
    1.8099848181e-02    1.0120000000e+05
    1.8109999597e-02    1.0120000000e+05
    1.8119897693e-02    1.0120000000e+05
    1.8129810691e-02    1.0120000000e+05
    1.8139736727e-02    1.0120000000e+05
    1.8149951473e-02    1.0120000000e+05
    1.8159901723e-02    1.0120000000e+05
    1.8169859424e-02    1.0120000000e+05
    1.8179828301e-02    1.0120000000e+05
    1.8189804628e-02    1.0120000000e+05
    1.8199790269e-02    1.0120000000e+05
    1.8209787086e-02    1.0120000000e+05
    1.8219795078e-02    1.0120000000e+05
    1.8229808658e-02    1.0120000000e+05
    1.8239831552e-02    1.0120000000e+05
    1.8249860033e-02    1.0120000000e+05
    1.8259894103e-02    1.0120000000e+05
    1.8269933760e-02    1.0120000000e+05
    1.8279979005e-02    1.0120000000e+05
    1.8289754167e-02    1.0120000000e+05
    1.8299814314e-02    1.0120000000e+05
    1.8309881911e-02    1.0120000000e+05
    1.8319951370e-02    1.0120000000e+05
    1.8329743296e-02    1.0120000000e+05
    1.8339822069e-02    1.0120000000e+05
    1.8349902704e-02    1.0120000000e+05
    1.8359990790e-02    1.0120000000e+05
    1.8369805068e-02    1.0120000000e+05
    1.8379906192e-02    1.0120000000e+05
    1.8389729783e-02    1.0120000000e+05
    1.8399836496e-02    1.0120000000e+05
    1.8409943208e-02    1.0120000000e+05
    1.8419772387e-02    1.0120000000e+05
    1.8429884687e-02    1.0120000000e+05
    1.8439998850e-02    1.0120000000e+05
    1.8449833617e-02    1.0120000000e+05
    1.8459949642e-02    1.0120000000e+05
    1.8469784409e-02    1.0120000000e+05
    1.8479900435e-02    1.0120000000e+05
    1.8489735201e-02    1.0120000000e+05
    1.8499849364e-02    1.0120000000e+05
    1.8509965390e-02    1.0120000000e+05
    1.8519802019e-02    1.0120000000e+05
    1.8529919907e-02    1.0120000000e+05
    1.8539756536e-02    1.0120000000e+05
    1.8549876288e-02    1.0120000000e+05
    1.8559996039e-02    1.0120000000e+05
    1.8569836393e-02    1.0120000000e+05
    1.8579958007e-02    1.0120000000e+05
    1.8589798361e-02    1.0120000000e+05
    1.8599921837e-02    1.0120000000e+05
    1.8609764054e-02    1.0120000000e+05
    1.8619889393e-02    1.0120000000e+05
    1.8629733473e-02    1.0120000000e+05
    1.8639860675e-02    1.0120000000e+05
    1.8649987876e-02    1.0120000000e+05
    1.8659835681e-02    1.0120000000e+05
    1.8669966608e-02    1.0120000000e+05
    1.8679816276e-02    1.0120000000e+05
    1.8689947203e-02    1.0120000000e+05
    1.8699798733e-02    1.0120000000e+05
    1.8709933385e-02    1.0120000000e+05
    1.8719786778e-02    1.0120000000e+05
    1.8729921430e-02    1.0120000000e+05
    1.8739776686e-02    1.0120000000e+05
    1.8749915063e-02    1.0120000000e+05
    1.8759772182e-02    1.0120000000e+05
    1.8769910559e-02    1.0120000000e+05
    1.8779769540e-02    1.0120000000e+05
    1.8789909780e-02    1.0120000000e+05
    1.8799768761e-02    1.0120000000e+05
    1.8809910864e-02    1.0120000000e+05
    1.8819771707e-02    1.0120000000e+05
    1.8829915673e-02    1.0120000000e+05
    1.8839778379e-02    1.0120000000e+05
    1.8849922344e-02    1.0120000000e+05
    1.8859785050e-02    1.0120000000e+05
    1.8869929016e-02    1.0120000000e+05
    1.8879793584e-02    1.0120000000e+05
    1.8889939412e-02    1.0120000000e+05
    1.8899803981e-02    1.0120000000e+05
    1.8909949809e-02    1.0120000000e+05
    1.8919816241e-02    1.0120000000e+05
    1.8929962069e-02    1.0120000000e+05
    1.8939828500e-02    1.0120000000e+05
    1.8949976191e-02    1.0120000000e+05
    1.8959840760e-02    1.0120000000e+05
    1.8969990313e-02    1.0120000000e+05
    1.8979854882e-02    1.0120000000e+05
    1.8989721313e-02    1.0120000000e+05
    1.8999870867e-02    1.0120000000e+05
    1.9009737298e-02    1.0120000000e+05
    1.9019884989e-02    1.0120000000e+05
    1.9029751420e-02    1.0120000000e+05
    1.9039900973e-02    1.0120000000e+05
    1.9049767405e-02    1.0120000000e+05
    1.9059916958e-02    1.0120000000e+05
    1.9069785252e-02    1.0120000000e+05
    1.9079932943e-02    1.0120000000e+05
    1.9089801237e-02    1.0120000000e+05
    1.9099950790e-02    1.0120000000e+05
    1.9109817222e-02    1.0120000000e+05
    1.9119966775e-02    1.0120000000e+05
    1.9129835069e-02    1.0120000000e+05
    1.9139984623e-02    1.0120000000e+05
    1.9149851054e-02    1.0120000000e+05
    1.9159719348e-02    1.0120000000e+05
    1.9169868901e-02    1.0120000000e+05
    1.9179735333e-02    1.0120000000e+05
    1.9189884886e-02    1.0120000000e+05
    1.9199753180e-02    1.0120000000e+05
    1.9209902734e-02    1.0120000000e+05
    1.9219771028e-02    1.0120000000e+05
    1.9229920581e-02    1.0120000000e+05
    1.9239788875e-02    1.0120000000e+05
    1.9249940291e-02    1.0120000000e+05
    1.9259808585e-02    1.0120000000e+05
    1.9269958138e-02    1.0120000000e+05
    1.9279828295e-02    1.0120000000e+05
    1.9289977849e-02    1.0120000000e+05
    1.9299846143e-02    1.0120000000e+05
    1.9309997559e-02    1.0120000000e+05
    1.9319865853e-02    1.0120000000e+05
    1.9329736009e-02    1.0120000000e+05
    1.9339885563e-02    1.0120000000e+05
    1.9349755719e-02    1.0120000000e+05
    1.9359907135e-02    1.0120000000e+05
    1.9369775429e-02    1.0120000000e+05
    1.9379926845e-02    1.0120000000e+05
    1.9389797002e-02    1.0120000000e+05
    1.9399948418e-02    1.0120000000e+05
    1.9409818575e-02    1.0120000000e+05
    1.9419971853e-02    1.0120000000e+05
    1.9429842010e-02    1.0120000000e+05
    1.9439995289e-02    1.0120000000e+05
[...]
    1.3513998687e-01    1.0122408594e+05
    1.3514991105e-01    1.0122407031e+05
    1.3515983522e-01    1.0122406250e+05
    1.3516974449e-01    1.0122403906e+05
    1.3517998159e-01    1.0122403906e+05
    1.3518989086e-01    1.0122402344e+05
    1.3519981503e-01    1.0122402344e+05
    1.3520973921e-01    1.0122400781e+05
    1.3521996140e-01    1.0122399219e+05
    1.3522988558e-01    1.0122397656e+05
    1.3523980975e-01    1.0122396875e+05
    1.3524971902e-01    1.0122396094e+05
    1.3525995612e-01    1.0122396094e+05
    1.3526986539e-01    1.0122393750e+05
    1.3527978957e-01    1.0122392969e+05
    1.3528971374e-01    1.0122391406e+05
    1.3529993594e-01    1.0122390625e+05
    1.3530986011e-01    1.0122389844e+05
    1.3531978428e-01    1.0122388281e+05
    1.3532969356e-01    1.0122387500e+05
    1.3533993065e-01    1.0122385156e+05
    1.3534985483e-01    1.0122385156e+05
    1.3535976410e-01    1.0122383594e+05
    1.3537000120e-01    1.0122383594e+05
    1.3537991047e-01    1.0122381250e+05
    1.3538983464e-01    1.0122380469e+05
    1.3539975882e-01    1.0122378906e+05
    1.3540998101e-01    1.0122378125e+05
    1.3541990519e-01    1.0122377344e+05
    1.3542982936e-01    1.0122375781e+05
    1.3543973863e-01    1.0122375000e+05
    1.3544997573e-01    1.0122372656e+05
    1.3545988500e-01    1.0122371875e+05
    1.3546980917e-01    1.0122371094e+05
    1.3547973335e-01    1.0122371094e+05
    1.3548995554e-01    1.0122368750e+05
    1.3549987972e-01    1.0122366406e+05
    1.3550980389e-01    1.0122366406e+05
    1.3551971316e-01    1.0122364844e+05
    1.3552995026e-01    1.0122364844e+05
    1.3553987443e-01    1.0122362500e+05
    1.3554978371e-01    1.0122361719e+05
    1.3555970788e-01    1.0122360156e+05
    1.3556993008e-01    1.0122359375e+05
    1.3557985425e-01    1.0122358594e+05
    1.3558977842e-01    1.0122357031e+05
    1.3559968770e-01    1.0122355469e+05
    1.3560992479e-01    1.0122353906e+05
    1.3561984897e-01    1.0122353125e+05
    1.3562975824e-01    1.0122352344e+05
    1.3563999534e-01    1.0122350781e+05
    1.3564990461e-01    1.0122349219e+05
    1.3565982878e-01    1.0122347656e+05
    1.3566975296e-01    1.0122346875e+05
    1.3567997515e-01    1.0122346094e+05
    1.3568989933e-01    1.0122344531e+05
    1.3569982350e-01    1.0122343750e+05
    1.3570973277e-01    1.0122341406e+05
    1.3571996987e-01    1.0122341406e+05
    1.3572989404e-01    1.0122339844e+05
    1.3573980331e-01    1.0122339844e+05
    1.3574972749e-01    1.0122337500e+05
    1.3575994968e-01    1.0122335156e+05
    1.3576987386e-01    1.0122335156e+05
    1.3577979803e-01    1.0122333594e+05
    1.3578970730e-01    1.0122333594e+05
    1.3579994440e-01    1.0122331250e+05
    1.3580986857e-01    1.0122330469e+05
    1.3581977785e-01    1.0122328906e+05
    1.3582970202e-01    1.0122328125e+05
    1.3583993912e-01    1.0122327344e+05
    1.3584984839e-01    1.0122325000e+05
    1.3585977256e-01    1.0122324219e+05
    1.3586969674e-01    1.0122322656e+05
    1.3587991893e-01    1.0122321875e+05
    1.3588984311e-01    1.0122321094e+05
    1.3589975238e-01    1.0122319531e+05
    1.3590998948e-01    1.0122317969e+05
    1.3591991365e-01    1.0122316406e+05
    1.3592982292e-01    1.0122315625e+05
    1.3593974710e-01    1.0122314844e+05
    1.3594996929e-01    1.0122313281e+05
    1.3595989347e-01    1.0122312500e+05
    1.3596981764e-01    1.0122310156e+05
    1.3597972691e-01    1.0122310156e+05
    1.3598996401e-01    1.0122308594e+05
    1.3599988818e-01    1.0122308594e+05
    1.3600979745e-01    1.0122306250e+05
    1.3601972163e-01    1.0122305469e+05
    1.3602995872e-01    1.0122303906e+05
    1.3603986800e-01    1.0122303125e+05
    1.3604979217e-01    1.0122302344e+05
    1.3605971634e-01    1.0122300781e+05
    1.3606993854e-01    1.0122299219e+05
    1.3607986271e-01    1.0122297656e+05
    1.3608977199e-01    1.0122296875e+05
    1.3609969616e-01    1.0122296094e+05
    1.3610993326e-01    1.0122294531e+05
    1.3611984253e-01    1.0122293750e+05
    1.3612976670e-01    1.0122291406e+05
    1.3613998890e-01    1.0122291406e+05
    1.3614991307e-01    1.0122290625e+05
    1.3615983725e-01    1.0122289844e+05
    1.3616976142e-01    1.0122288281e+05
    1.3617998362e-01    1.0122286719e+05
    1.3618990779e-01    1.0122285156e+05
    1.3619981706e-01    1.0122284375e+05
    1.3620974123e-01    1.0122283594e+05
    1.3621997833e-01    1.0122282031e+05
    1.3622988760e-01    1.0122281250e+05
    1.3623981178e-01    1.0122280469e+05
    1.3624973595e-01    1.0122278906e+05
    1.3625995815e-01    1.0122278125e+05
    1.3626988232e-01    1.0122277344e+05
    1.3627979159e-01    1.0122275781e+05
    1.3628971577e-01    1.0122275000e+05
    1.3629995286e-01    1.0122272656e+05
    1.3630986214e-01    1.0122272656e+05
    1.3631978631e-01    1.0122271094e+05
    1.3632971048e-01    1.0122271094e+05
    1.3633993268e-01    1.0122269531e+05
    1.3634985685e-01    1.0122267969e+05
    1.3635978103e-01    1.0122266406e+05
    1.3636969030e-01    1.0122266406e+05
    1.3637992740e-01    1.0122264844e+05
    1.3638983667e-01    1.0122264844e+05
    1.3639976084e-01    1.0122263281e+05
    1.3640999794e-01    1.0122261719e+05
    1.3641990721e-01    1.0122260156e+05
    1.3642983139e-01    1.0122260156e+05
    1.3643975556e-01    1.0122258594e+05
    1.3644997776e-01    1.0122258594e+05
    1.3645990193e-01    1.0122256250e+05
    1.3646981120e-01    1.0122255469e+05
    1.3647973537e-01    1.0122253906e+05
    1.3648997247e-01    1.0122253125e+05
    1.3649988174e-01    1.0122252344e+05
    1.3650980592e-01    1.0122252344e+05
    1.3651973009e-01    1.0122250781e+05
    1.3652995229e-01    1.0122249219e+05
    1.3653987646e-01    1.0122247656e+05
    1.3654980063e-01    1.0122247656e+05
    1.3655970991e-01    1.0122246094e+05
    1.3656994700e-01    1.0122246094e+05
    1.3657985628e-01    1.0122244531e+05
    1.3658978045e-01    1.0122242969e+05
    1.3659970462e-01    1.0122241406e+05
    1.3660992682e-01    1.0122241406e+05
    1.3661985099e-01    1.0122239844e+05
    1.3662977517e-01    1.0122239844e+05
    1.3663999736e-01    1.0122238281e+05
    1.3664992154e-01    1.0122237500e+05
    1.3665984571e-01    1.0122235156e+05
    1.3666975498e-01    1.0122235156e+05
    1.3667999208e-01    1.0122234375e+05
    1.3668990135e-01    1.0122233594e+05
    1.3669982553e-01    1.0122232031e+05
    1.3670974970e-01    1.0122231250e+05
    1.3671997190e-01    1.0122228906e+05
    1.3672989607e-01    1.0122228906e+05
    1.3673982024e-01    1.0122228125e+05
    1.3674972951e-01    1.0122227344e+05
    1.3675996661e-01    1.0122225781e+05
    1.3676987588e-01    1.0122225000e+05
    1.3677980006e-01    1.0122224219e+05
    1.3678972423e-01    1.0122222656e+05
    1.3679994643e-01    1.0122221875e+05
    1.3680987060e-01    1.0122221094e+05
    1.3681979477e-01    1.0122221094e+05
    1.3682970405e-01    1.0122218750e+05
    1.3683994114e-01    1.0122217969e+05
    1.3684986532e-01    1.0122216406e+05
    1.3685977459e-01    1.0122216406e+05
    1.3686969876e-01    1.0122214844e+05
    1.3687992096e-01    1.0122214844e+05
    1.3688984513e-01    1.0122213281e+05
    1.3689976931e-01    1.0122212500e+05
    1.3690999150e-01    1.0122210156e+05
    1.3691991568e-01    1.0122210156e+05
    1.3692983985e-01    1.0122209375e+05
    1.3693974912e-01    1.0122208594e+05
    1.3694998622e-01    1.0122207031e+05
    1.3695991039e-01    1.0122206250e+05
    1.3696981966e-01    1.0122205469e+05
    1.3697974384e-01    1.0122203906e+05
    1.3698996603e-01    1.0122203125e+05
    1.3699989021e-01    1.0122202344e+05
    1.3700981438e-01    1.0122202344e+05
    1.3701972365e-01    1.0122200781e+05
    1.3702996075e-01    1.0122199219e+05
    1.3703988492e-01    1.0122197656e+05
    1.3704979420e-01    1.0122197656e+05
    1.3705971837e-01    1.0122196875e+05
    1.3706994057e-01    1.0122196094e+05
    1.3707986474e-01    1.0122194531e+05
    1.3708978891e-01    1.0122193750e+05
    1.3709971309e-01    1.0122192969e+05
    1.3710993528e-01    1.0122191406e+05
    1.3711985946e-01    1.0122190625e+05
    1.3712976873e-01    1.0122189844e+05
    1.3713969290e-01    1.0122189844e+05
    1.3714993000e-01    1.0122188281e+05
    1.3715983927e-01    1.0122187500e+05
    1.3716976345e-01    1.0122185156e+05
    1.3717998564e-01    1.0122185156e+05
    1.3718990982e-01    1.0122184375e+05
    1.3719983399e-01    1.0122183594e+05
    1.3720974326e-01    1.0122183594e+05
    1.3721998036e-01    1.0122181250e+05
    1.3722990453e-01    1.0122180469e+05
    1.3723981380e-01    1.0122178906e+05
    1.3724973798e-01    1.0122178906e+05
    1.3725996017e-01    1.0122178125e+05
    1.3726988435e-01    1.0122177344e+05
    1.3727980852e-01    1.0122175781e+05
    1.3728973269e-01    1.0122175000e+05
    1.3729995489e-01    1.0122174219e+05
    1.3730987906e-01    1.0122172656e+05
    1.3731978834e-01    1.0122172656e+05
    1.3732971251e-01    1.0122171875e+05
    1.3733994961e-01    1.0122171094e+05
    1.3734985888e-01    1.0122169531e+05
    1.3735978305e-01    1.0122168750e+05
    1.3736970723e-01    1.0122167969e+05
    1.3737992942e-01    1.0122166406e+05
    1.3738985360e-01    1.0122165625e+05
    1.3739977777e-01    1.0122164844e+05
    1.3740999997e-01    1.0122163281e+05
    1.3741992414e-01    1.0122161719e+05
    1.3742983341e-01    1.0122160156e+05
    1.3743975759e-01    1.0122158594e+05
    1.3744999468e-01    1.0122155469e+05
    1.3745990396e-01    1.0122153125e+05
    1.3746982813e-01    1.0122149219e+05
    1.3747975230e-01    1.0122144531e+05
    1.3748997450e-01    1.0122138281e+05
    1.3749989867e-01    1.0122131250e+05
    1.3750980794e-01    1.0122121094e+05
    1.3751973212e-01    1.0122108594e+05
    1.3752996922e-01    1.0122090625e+05
    1.3753987849e-01    1.0122067969e+05
    1.3754980266e-01    1.0122039844e+05
    1.3755972683e-01    1.0122000781e+05
    1.3756994903e-01    1.0121950000e+05
    1.3757987320e-01    1.0121886719e+05
    1.3758979738e-01    1.0121803906e+05
    1.3759970665e-01    1.0121699219e+05
    1.3760994375e-01    1.0121561719e+05
    1.3761985302e-01    1.0121393750e+05
    1.3762977719e-01    1.0121185156e+05
    1.3763970137e-01    1.0120928906e+05
    1.3764992356e-01    1.0120611719e+05
    1.3765984774e-01    1.0120244531e+05
    1.3766977191e-01    1.0119814844e+05
    1.3767999411e-01    1.0119302344e+05
    1.3768991828e-01    1.0118736719e+05
    1.3769984245e-01    1.0118105469e+05
    1.3770975173e-01    1.0117408594e+05
    1.3771998882e-01    1.0116621875e+05
    1.3772989810e-01    1.0115796875e+05
    1.3773982227e-01    1.0114912500e+05
    1.3774974644e-01    1.0113972656e+05
    1.3775996864e-01    1.0112950781e+05
    1.3776989281e-01    1.0111914844e+05
    1.3777981699e-01    1.0110840625e+05
    1.3778972626e-01    1.0109731250e+05
    1.3779996336e-01    1.0108553906e+05
    1.3780987263e-01    1.0107385156e+05
    1.3781979680e-01    1.0106190625e+05
    1.3782972097e-01    1.0104974219e+05
    1.3783994317e-01    1.0103702344e+05
    1.3784986734e-01    1.0102452344e+05
    1.3785979152e-01    1.0101188281e+05
    1.3786970079e-01    1.0099911719e+05
    1.3787993789e-01    1.0098583594e+05
    1.3788986206e-01    1.0097285156e+05
    1.3789977133e-01    1.0095978906e+05
    1.3790969551e-01    1.0094665625e+05
    1.3791991770e-01    1.0093303906e+05
    1.3792984188e-01    1.0091978125e+05
    1.3793976605e-01    1.0090646094e+05
    1.3794998825e-01    1.0089266406e+05
    1.3795991242e-01    1.0087925000e+05
    1.3796983659e-01    1.0086580469e+05
    1.3797974586e-01    1.0085232031e+05
    1.3798998296e-01    1.0083836719e+05
    1.3799990714e-01    1.0082481250e+05
    1.3800981641e-01    1.0081122656e+05
    1.3801974058e-01    1.0079764844e+05
    1.3802996278e-01    1.0078358594e+05
    1.3803988695e-01    1.0076993750e+05
    1.3804981112e-01    1.0075627344e+05
    1.3805972040e-01    1.0074258594e+05
    1.3806995749e-01    1.0072846094e+05
    1.3807988167e-01    1.0071474219e+05
    1.3808979094e-01    1.0070102344e+05
    1.3809971511e-01    1.0068727344e+05
    1.3810993731e-01    1.0067309375e+05
    1.3811986148e-01    1.0065933594e+05
    1.3812978566e-01    1.0064555469e+05
    1.3813970983e-01    1.0063177344e+05
    1.3814993203e-01    1.0061755469e+05
    1.3815985620e-01    1.0060375000e+05
    1.3816976547e-01    1.0058994531e+05
    1.3817968965e-01    1.0057612500e+05
    1.3818992674e-01    1.0056187500e+05
    1.3819983602e-01    1.0054805469e+05
    1.3820976019e-01    1.0053421875e+05
    1.3821998239e-01    1.0051994531e+05
    1.3822990656e-01    1.0050610156e+05
    1.3823983073e-01    1.0049227344e+05
    1.3824974000e-01    1.0047841406e+05
    1.3825997710e-01    1.0046412500e+05
    1.3826990128e-01    1.0045027344e+05
    1.3827981055e-01    1.0043640625e+05
    1.3828973472e-01    1.0042253906e+05
    1.3829997182e-01    1.0040824219e+05
    1.3830988109e-01    1.0039437500e+05
    1.3831980526e-01    1.0038050000e+05
    1.3832972944e-01    1.0036663281e+05
    1.3833995163e-01    1.0035232031e+05
    1.3834987581e-01    1.0033844531e+05
    1.3835978508e-01    1.0032456250e+05
    1.3836970925e-01    1.0031068750e+05
    1.3837994635e-01    1.0029636719e+05
    1.3838985562e-01    1.0028247656e+05
    1.3839977980e-01    1.0026860156e+05
    1.3840970397e-01    1.0025471875e+05
    1.3841992617e-01    1.0024039844e+05
    1.3842985034e-01    1.0022652344e+05
    1.3843977451e-01    1.0021262500e+05
    1.3844999671e-01    1.0019830469e+05
    1.3845992088e-01    1.0018441406e+05
    1.3846983016e-01    1.0017053125e+05
    1.3847975433e-01    1.0015664844e+05
    1.3848999143e-01    1.0014232031e+05
    1.3849990070e-01    1.0012843750e+05
    1.3850982487e-01    1.0011453906e+05
    1.3851974905e-01    1.0010065625e+05
    1.3852997124e-01    1.0008633594e+05
    1.3853989542e-01    1.0007246094e+05
    1.3854981959e-01    1.0005856250e+05
    1.3855972886e-01    1.0004466406e+05
    1.3856996596e-01    1.0003035156e+05
    1.3857987523e-01    1.0001646875e+05
    1.3858979940e-01    1.0000258594e+05
    1.3859972358e-01    9.9988710938e+04
    1.3860994577e-01    9.9974382812e+04
    1.3861986995e-01    9.9960500000e+04
    1.3862979412e-01    9.9946617188e+04
    1.3863970339e-01    9.9932742188e+04
    1.3864994049e-01    9.9918429688e+04
    1.3865984976e-01    9.9904539062e+04
    1.3866977394e-01    9.9890664062e+04
    1.3867969811e-01    9.9876789062e+04
    1.3868992031e-01    9.9862476562e+04
    1.3869984448e-01    9.9848601562e+04
    1.3870976865e-01    9.9834726562e+04
    1.3871999085e-01    9.9820429688e+04
    1.3872991502e-01    9.9806562500e+04
    1.3873983920e-01    9.9792687500e+04
    1.3874974847e-01    9.9778820312e+04
    1.3875998557e-01    9.9764523438e+04
    1.3876989484e-01    9.9750656250e+04
    1.3877981901e-01    9.9736789062e+04
    1.3878974319e-01    9.9722929688e+04
    1.3879996538e-01    9.9708632812e+04
    1.3880988955e-01    9.9694773438e+04
    1.3881981373e-01    9.9680914062e+04
    1.3882972300e-01    9.9667054688e+04
    1.3883996010e-01    9.9652773438e+04
    1.3884988427e-01    9.9638914062e+04
    1.3885979354e-01    9.9625062500e+04
    1.3886971772e-01    9.9611210938e+04
    1.3887993991e-01    9.9596929688e+04
    1.3888986409e-01    9.9583085938e+04
    1.3889978826e-01    9.9569242188e+04
    1.3890969753e-01    9.9555398438e+04
    1.3891993463e-01    9.9541125000e+04
    1.3892985880e-01    9.9527289062e+04
    1.3893976808e-01    9.9513445312e+04
    1.3894969225e-01    9.9499617188e+04
    1.3895992935e-01    9.9485351562e+04
    1.3896983862e-01    9.9471523438e+04
    1.3897976279e-01    9.9457687500e+04
    1.3898998499e-01    9.9443429688e+04
    1.3899990916e-01    9.9429601562e+04
    1.3900983334e-01    9.9415781250e+04
    1.3901974261e-01    9.9401960938e+04
    1.3902997971e-01    9.9387710938e+04
    1.3903990388e-01    9.9373898438e+04
    1.3904981315e-01    9.9360085938e+04
    1.3905973732e-01    9.9346273438e+04
    1.3906995952e-01    9.9332031250e+04
    1.3907988369e-01    9.9318218750e+04
    1.3908980787e-01    9.9304414062e+04
    1.3909973204e-01    9.9290617188e+04
    1.3910995424e-01    9.9276382812e+04
    1.3911987841e-01    9.9262585938e+04
    1.3912978768e-01    9.9248789062e+04
    1.3913971186e-01    9.9235000000e+04
    1.3914994895e-01    9.9220781250e+04
    1.3915985823e-01    9.9206992188e+04
    1.3916978240e-01    9.9193210938e+04
    1.3917970657e-01    9.9179414062e+04
    1.3918992877e-01    9.9165218750e+04
    1.3919985294e-01    9.9151437500e+04
    1.3920977712e-01    9.9137664062e+04
    1.3921999931e-01    9.9123468750e+04
    1.3922992349e-01    9.9109695312e+04
    1.3923983276e-01    9.9095929688e+04
    1.3924975693e-01    9.9082164062e+04
    1.3925999403e-01    9.9067976562e+04
    1.3926990330e-01    9.9054226562e+04
    1.3927982748e-01    9.9040476562e+04
    1.3928975165e-01    9.9026726562e+04
    1.3929997385e-01    9.9012554688e+04
    1.3930989802e-01    9.8998812500e+04
    1.3931980729e-01    9.8985070312e+04
    1.3932973146e-01    9.8971335938e+04
    1.3933996856e-01    9.8957164062e+04
    1.3934987783e-01    9.8943445312e+04
    1.3935980201e-01    9.8929718750e+04
    1.3936972618e-01    9.8916000000e+04
    1.3937994838e-01    9.8901851562e+04
    1.3938987255e-01    9.8888148438e+04
    1.3939979672e-01    9.8874429688e+04
    1.3940970600e-01    9.8860726562e+04
    1.3941994309e-01    9.8846601562e+04
    1.3942985237e-01    9.8832906250e+04
    1.3943977654e-01    9.8819210938e+04
    1.3944970071e-01    9.8805523438e+04
    1.3945992291e-01    9.8791414062e+04
    1.3946984708e-01    9.8777742188e+04
    1.3947977126e-01    9.8764070312e+04
    1.3948999345e-01    9.8749976562e+04
    1.3949991763e-01    9.8736320312e+04
    1.3950984180e-01    9.8722664062e+04
    1.3951975107e-01    9.8709023438e+04
    1.3952998817e-01    9.8694945312e+04
    1.3953989744e-01    9.8681304688e+04
    1.3954982162e-01    9.8667664062e+04
    1.3955974579e-01    9.8654039062e+04
    1.3956996799e-01    9.8640007812e+04
    1.3957989216e-01    9.8626398438e+04
    1.3958981633e-01    9.8612781250e+04
    1.3959972560e-01    9.8599187500e+04
    1.3960996270e-01    9.8585164062e+04
    1.3961988688e-01    9.8571585938e+04
    1.3962979615e-01    9.8558000000e+04
    1.3963972032e-01    9.8544414062e+04
    1.3964994252e-01    9.8530437500e+04
    1.3965986669e-01    9.8516882812e+04
    1.3966979086e-01    9.8503335938e+04
    1.3967970014e-01    9.8489789062e+04
    1.3968993723e-01    9.8475835938e+04
    1.3969986141e-01    9.8462320312e+04
    1.3970977068e-01    9.8448812500e+04
    1.3971969485e-01    9.8435320312e+04
    1.3972993195e-01    9.8421414062e+04
    1.3973984122e-01    9.8407960938e+04
    1.3974976540e-01    9.8394500000e+04
    1.3975998759e-01    9.8380648438e+04
    1.3976991177e-01    9.8367226562e+04
    1.3977983594e-01    9.8353843750e+04
    1.3978974521e-01    9.8340468750e+04
    1.3979998231e-01    9.8326695312e+04
    1.3980990648e-01    9.8313367188e+04
    1.3981981575e-01    9.8300070312e+04
    1.3982973993e-01    9.8286789062e+04
    1.3983996212e-01    9.8273148438e+04
    1.3984988630e-01    9.8259937500e+04
    1.3985981047e-01    9.8246773438e+04
    1.3986973464e-01    9.8233648438e+04
    1.3987995684e-01    9.8220164062e+04
    1.3988988101e-01    9.8207156250e+04
    1.3989979029e-01    9.8194210938e+04
    1.3990971446e-01    9.8181320312e+04
    1.3991995156e-01    9.8168125000e+04
    1.3992986083e-01    9.8155414062e+04
    1.3993978500e-01    9.8142835938e+04
    1.3994970918e-01    9.8130367188e+04
    1.3995993137e-01    9.8117679688e+04
    1.3996985555e-01    9.8105562500e+04
    1.3997977972e-01    9.8093664062e+04
    1.3998968899e-01    9.8082039062e+04
    1.3999992609e-01    9.8070398438e+04
endcurve
