Curveplot
LS-DYNA keyword deck by LS-PrePost                          
Time
Pressure
Defined Connection
Pressure @ 1 #pts=12001
* Minval=     1.7055804443e+02 at time=         0.0035897759
* Maxval=     8.2608025000e+06 at time=         0.0002399478
    0.0000000000e+00    1.0120000000e+05
    9.9485332612e-06    1.0120000000e+05
    1.9897426682e-05    1.0120000000e+05
    2.9967670343e-05    1.0120000000e+05
    3.9946917241e-05    1.0120000000e+05
    4.9944548664e-05    1.0120000000e+05
    5.9972415329e-05    1.0120000000e+05
    6.9960617111e-05    1.0120000000e+05
    7.9970872321e-05    1.0120000000e+05
    8.9953049610e-05    1.0120000000e+05
    9.9988596048e-05    1.0120000000e+05
    1.0994882177e-04    1.0120000000e+05
    1.1996061221e-04    1.0120000000e+05
    1.2994413555e-04    1.0120000000e+05
    1.3996200869e-04    1.0120000000e+05
    1.4993610966e-04    1.0120000000e+05
    1.5993103443e-04    1.0120000000e+05
    1.6994161706e-04    1.0120000000e+05
    1.7996222596e-04    1.0120000000e+05
    1.8998634187e-04    1.0120000000e+05
    1.9992937450e-04    1.0120000000e+05
    2.0994179067e-04    1.0120000000e+05
    2.1993929113e-04    1.0120000000e+05
    2.2999783687e-04    1.0120000000e+05
    2.3994775256e-04    8.2608025000e+06
    2.4994800333e-04    7.1256255000e+06
    2.5999560603e-04    6.2492365000e+06
    2.6991433697e-04    5.5847765000e+06
    2.7995757409e-04    4.3915415000e+06
    2.8994723107e-04    2.7786087500e+06
    2.9996514786e-04    1.6019462500e+05
    3.0992022948e-04    1.6988617188e+05
    3.1998805935e-04    1.8250145312e+05
    3.2998117968e-04    1.9981582812e+05
    3.3998530125e-04    2.1595304688e+05
    3.4999760101e-04    2.3075007812e+05
    3.5990937613e-04    2.4376295312e+05
    3.6999981967e-04    2.5502879688e+05
    3.7998356856e-04    2.6415865625e+05
    3.8995320210e-04    2.7110650000e+05
    3.9990706136e-04    2.7587934375e+05
    4.0994153824e-04    2.7858681250e+05
    4.1996000800e-04    2.7920196875e+05
    4.2995926924e-04    2.7797471875e+05
    4.3993763393e-04    2.7501028125e+05
    4.4999475358e-04    2.7049340625e+05
    4.5992733794e-04    2.6475606250e+05
    4.6993893920e-04    2.5789704688e+05
    4.7992487089e-04    2.5016450000e+05
    4.8998632701e-04    2.4167507812e+05
    4.9991713604e-04    2.3281443750e+05
    5.0992559409e-04    2.2356175000e+05
    5.1990384236e-04    2.1416429688e+05
    5.2995997248e-04    2.0464748438e+05
    5.3998240037e-04    1.9522070312e+05
    5.4997345433e-04    1.8597254688e+05
    5.5992952548e-04    1.7697445312e+05
    5.6996213971e-04    1.6818045312e+05
    5.7995726820e-04    1.5973404688e+05
    5.8991363039e-04    1.5166032812e+05
    5.9994676849e-04    1.4388259375e+05
    6.0993985971e-04    1.3651115625e+05
    6.1989109963e-04    1.2954228125e+05
    6.2991696177e-04    1.2289246094e+05
    6.3989753835e-04    1.1664697656e+05
    6.4995506546e-04    1.1072483594e+05
    6.5996724879e-04    1.0517910156e+05
    6.6993245855e-04    9.9983406250e+04
    6.7997176666e-04    9.5059781250e+04
    6.8995979382e-04    9.0458867188e+04
    6.9989968324e-04    8.6161578125e+04
    7.0991268149e-04    8.2098171875e+04
    7.1999989450e-04    7.8251476562e+04
    7.2990718763e-04    7.4691968750e+04
    7.3988677468e-04    7.1305859375e+04
    7.4993696762e-04    6.8082804688e+04
    7.5993355131e-04    6.5051480469e+04
    7.6987204375e-04    6.2200234375e+04
    7.7988271369e-04    5.9482121094e+04
    7.8996637603e-04    5.6890386719e+04
    7.9998996807e-04    5.4449980469e+04
    8.0995127792e-04    5.2150156250e+04
    8.1998156384e-04    4.9952792969e+04
    8.2995049888e-04    4.7879300781e+04
    8.3999108756e-04    4.5895464844e+04
    8.4996514488e-04    4.4022386719e+04
    8.5987069178e-04    4.2252757812e+04
    8.6998759070e-04    4.0533113281e+04
    8.7989354506e-04    3.8930304688e+04
    8.8986527408e-04    3.7393222656e+04
    8.9990958804e-04    3.5918195312e+04
    9.0988294687e-04    3.4522203125e+04
    9.1992679518e-04    3.3181718750e+04
    9.2989485711e-04    3.1912744141e+04
    9.3993294286e-04    3.0693380859e+04
    9.4989268109e-04    2.9538556641e+04
    9.5992209390e-04    2.8428177734e+04
    9.6987007419e-04    2.7376173828e+04
    9.7988417838e-04    2.6364365234e+04
    9.8997168243e-04    2.5390529297e+04
    9.9997536745e-04    2.4467500000e+04
    1.0098927887e-03    2.3592304688e+04
    1.0198783129e-03    2.2749234375e+04
    1.0299324058e-03    2.1937083984e+04
    1.0398973245e-03    2.1166687500e+04
    1.0499303462e-03    2.0424048828e+04
    1.0598711669e-03    1.9719296875e+04
    1.0698793922e-03    1.9039474609e+04
    1.0799522279e-03    1.8383867188e+04
    1.0899316985e-03    1.7761320312e+04
    1.0999798542e-03    1.7160255859e+04
    1.1099296389e-03    1.6589355469e+04
    1.1199458968e-03    1.6037885742e+04
    1.1298607569e-03    1.5513895508e+04
    1.1398410425e-03    1.5007414062e+04
    1.1498876847e-03    1.4517838867e+04
    1.1598292040e-03    1.4052473633e+04
    1.1698362650e-03    1.3602352539e+04
    1.1799092172e-03    1.3166964844e+04
    1.1898735538e-03    1.2752956055e+04
    1.1999028502e-03    1.2352246094e+04
    1.2099973392e-03    1.1964409180e+04
    1.2199738994e-03    1.1595702148e+04
    1.2298411457e-03    1.1244659180e+04
    1.2399526313e-03    1.0898377930e+04
    1.2499475852e-03    1.0568878906e+04
    1.2598234462e-03    1.0255263672e+04
    1.2699464569e-03    9.9456025391e+03
    1.2799490942e-03    9.6508544922e+03
    1.2898286805e-03    9.3702314453e+03
    1.2999584433e-03    9.0928652344e+03
    1.3099638745e-03    8.8287763672e+03
    1.3198421802e-03    8.5772656250e+03
    1.3299739221e-03    8.3284267578e+03
    1.3399773743e-03    8.0914238281e+03
    1.3498497428e-03    7.8656459961e+03
    1.3599785743e-03    7.6420375977e+03
    1.3699751580e-03    7.4290039062e+03
    1.3798365835e-03    7.2260043945e+03
    1.3899576152e-03    7.0247460938e+03
    1.3999332441e-03    6.8331230469e+03
    1.4099715045e-03    6.6467905273e+03
    1.4198698336e-03    6.4691801758e+03
    1.4298277674e-03    6.2964003906e+03
    1.4398553176e-03    6.1281538086e+03
    1.4499464305e-03    5.9644301758e+03
    1.4598926064e-03    5.8083354492e+03
    1.4698995510e-03    5.6563686523e+03
    1.4799683122e-03    5.5084116211e+03
    1.4898878289e-03    5.3673168945e+03
    1.4998675324e-03    5.2298671875e+03
    1.5099087032e-03    5.0959565430e+03
    1.5197958564e-03    4.9682373047e+03
    1.5299597289e-03    4.8410644531e+03
    1.5399686527e-03    4.7197607422e+03
    1.5498192515e-03    4.6040439453e+03
    1.5599499457e-03    4.4886938477e+03
    1.5699209180e-03    4.3786528320e+03
    1.5799525427e-03    4.2713090820e+03
    1.5898204874e-03    4.1688925781e+03
    1.5999743482e-03    4.0666804199e+03
    1.6099627828e-03    3.9691613770e+03
    1.6197829973e-03    3.8761062012e+03
    1.6298922710e-03    3.7831335449e+03
    1.6398319276e-03    3.6944133301e+03
    1.6498307232e-03    3.6077648926e+03
    1.6598913353e-03    3.5231237793e+03
    1.6697776737e-03    3.4423454590e+03
    1.6799597070e-03    3.3615488281e+03
    1.6899653710e-03    3.2844433594e+03
    1.6997914063e-03    3.2108566895e+03
    1.7099181423e-03    3.1371572266e+03
    1.7198646674e-03    3.0668112793e+03
    1.7298709136e-03    2.9980175781e+03
    1.7399366479e-03    2.9307458496e+03
    1.7498165835e-03    2.8665383301e+03
    1.7597560072e-03    2.8037058105e+03
    1.7697548028e-03    2.7422233887e+03
    1.7798144836e-03    2.6820541992e+03
    1.7899357481e-03    2.6231718750e+03
    1.7998632975e-03    2.5669763184e+03
    1.8098506844e-03    2.5119499512e+03
    1.8198989565e-03    2.4580673828e+03
    1.8297485076e-03    2.4066445312e+03
    1.8399183173e-03    2.3549511719e+03
    1.8498877762e-03    2.3056159668e+03
    1.8599176547e-03    2.2572780762e+03
    1.8697425257e-03    2.2111494141e+03
    1.8798940582e-03    2.1647177734e+03
    1.8898383714e-03    2.1204091797e+03
    1.8998432206e-03    2.0769692383e+03
    1.9099089550e-03    2.0343814697e+03
    1.9197619986e-03    1.9937459717e+03
    1.9299503183e-03    1.9527886963e+03
    1.9399244338e-03    1.9137070312e+03
    1.9499592017e-03    1.8753695068e+03
    1.9597739447e-03    1.8387968750e+03
    1.9699239638e-03    1.8019073486e+03
    1.9798516296e-03    1.7667183838e+03
    1.9898379687e-03    1.7321835938e+03
    1.9998876378e-03    1.6982786865e+03
    2.0097109955e-03    1.6659373779e+03
    2.0198917482e-03    1.6332265625e+03
    2.0298426971e-03    1.6020269775e+03
    2.0398546476e-03    1.5713853760e+03
    2.0499287639e-03    1.5412905273e+03
    2.0597665571e-03    1.5125941162e+03
    2.0699650049e-03    1.4835483398e+03
    2.0799252670e-03    1.4558511963e+03
    2.0899472293e-03    1.4286331787e+03
    2.0997247193e-03    1.4026893311e+03
    2.1098705474e-03    1.3763891602e+03
    2.1197702736e-03    1.3513195801e+03
    2.1297310013e-03    1.3266694336e+03
    2.1397538949e-03    1.3024313965e+03
    2.1498396527e-03    1.2785980225e+03
    2.1599894390e-03    1.2551623535e+03
    2.1698838100e-03    1.2328321533e+03
    2.1798396483e-03    1.2108625488e+03
    2.1898581181e-03    1.1892478027e+03
    2.1999401506e-03    1.1679815674e+03
    2.2097576875e-03    1.1477285156e+03
    2.2199600935e-03    1.1271461182e+03
    2.2299035918e-03    1.1075288086e+03
    2.2399097215e-03    1.0882175293e+03
    2.2499801125e-03    1.0692062988e+03
    2.2597762290e-03    1.0511104736e+03
    2.2699751426e-03    1.0326763916e+03
    2.2798974533e-03    1.0151290894e+03
    2.2898833267e-03    9.9784521484e+02
    2.2999336943e-03    9.8082073975e+02
    2.3096993100e-03    9.6462567139e+02
    2.3198788986e-03    9.4809887695e+02
    2.3297714069e-03    9.3237695312e+02
    2.3397277109e-03    9.1688214111e+02
    2.3497485090e-03    9.0161108398e+02
    2.3598354310e-03    8.8656036377e+02
    2.3699891753e-03    8.7172674561e+02
    2.3798418697e-03    8.5762774658e+02
    2.3897576611e-03    8.4372778320e+02
    2.3997423705e-03    8.3001483154e+02
    2.4097927380e-03    8.1649212646e+02
    2.4199108593e-03    8.0315667725e+02
    2.4297183845e-03    7.9048980713e+02
    2.4399715476e-03    7.7751422119e+02
    2.4499115534e-03    7.6518865967e+02
    2.4599181488e-03    7.5302716064e+02
    2.4699924979e-03    7.4102716064e+02
    2.4797441438e-03    7.2963922119e+02
    2.4899544660e-03    7.1794976807e+02
    2.4998390581e-03    7.0685614014e+02
    2.5097904727e-03    6.9590362549e+02
    2.5198094081e-03    6.8509100342e+02
    2.5298933033e-03    6.7442028809e+02
    2.5396444835e-03    6.6429931641e+02
    2.5498720352e-03    6.5388769531e+02
    2.5597589556e-03    6.4401672363e+02
    2.5697140954e-03    6.3426580811e+02
    2.5797386188e-03    6.2463317871e+02
    2.5898341555e-03    6.1511755371e+02
    2.5995762553e-03    6.0610644531e+02
    2.6098135859e-03    5.9681506348e+02
    2.6196946856e-03    5.8801617432e+02
    2.6296393480e-03    5.7932397461e+02
    2.6396235917e-03    5.7075683594e+02
    2.6496518403e-03    5.6231140137e+02
    2.6597208343e-03    5.5398895264e+02
    2.6698205620e-03    5.4579968262e+02
    2.6799491607e-03    5.3773870850e+02
    2.6896537747e-03    5.3015179443e+02
    2.6998112444e-03    5.2234344482e+02
    2.7099803556e-03    5.1467205811e+02
    2.7197336312e-03    5.0746508789e+02
    2.7299404610e-03    5.0003964233e+02
    2.7396918740e-03    4.9307199097e+02
    2.7499122079e-03    4.8591610718e+02
    2.7596591972e-03    4.7919555664e+02
    2.7698660269e-03    4.7228921509e+02
    2.7796472423e-03    4.6581140137e+02
    2.7898324188e-03    4.5914916992e+02
    2.7995784767e-03    4.5288626099e+02
    2.8097692411e-03    4.4646347046e+02
    2.8199579101e-03    4.4015390015e+02
    2.8297200333e-03    4.3422201538e+02
    2.8398837894e-03    4.2813845825e+02
    2.8496368323e-03    4.2241183472e+02
    2.8598124627e-03    4.1652920532e+02
    2.8695445508e-03    4.1100415039e+02
    2.8797283303e-03    4.0534219360e+02
    2.8898704331e-03    3.9975515747e+02
    2.8996099718e-03    3.9450646973e+02
    2.9098386876e-03    3.8908584595e+02
    2.9195463285e-03    3.8402035522e+02
    2.9296951834e-03    3.7882308960e+02
    2.9399029445e-03    3.7369750977e+02
    2.9496266507e-03    3.6885751343e+02
    2.9597755056e-03    3.6391702271e+02
    2.9695569538e-03    3.5922961426e+02
    2.9797395691e-03    3.5442532349e+02
    2.9899664223e-03    3.4968411255e+02
    2.9997788370e-03    3.4521548462e+02
    3.0096038245e-03    3.4081759644e+02
    3.0198963359e-03    3.3628207397e+02
    3.0297264457e-03    3.3200250244e+02
    3.0395612121e-03    3.2779562378e+02
    3.0498972628e-03    3.2346047974e+02
    3.0597785953e-03    3.1937203979e+02
    3.0696697067e-03    3.1534640503e+02
    3.0795722269e-03    3.1138125610e+02
    3.0899443664e-03    3.0730096436e+02
    3.0998550355e-03    3.0345556641e+02
    3.1097650062e-03    2.9967098999e+02
    3.1196775381e-03    2.9594656372e+02
    3.1295823865e-03    2.9228485107e+02
    3.1399375293e-03    2.8851934814e+02
    3.1498079188e-03    2.8497973633e+02
    3.1596773770e-03    2.8150241089e+02
    3.1699673273e-03    2.7792697144e+02
    3.1797911506e-03    2.7457189941e+02
    3.1895823777e-03    2.7127566528e+02
    3.1997831538e-03    2.6789404297e+02
    3.2099441160e-03    2.6457775879e+02
    3.2196200918e-03    2.6146762085e+02
    3.2296793070e-03    2.5828298950e+02
    3.2396796159e-03    2.5516516113e+02
    3.2496217173e-03    2.5211213684e+02
    3.2599298283e-03    2.4899516296e+02
    3.2697557472e-03    2.4606903076e+02
    3.2799488399e-03    2.4307899475e+02
    3.2896611374e-03    2.4027252197e+02
    3.2997368835e-03    2.3740385437e+02
    3.3097537234e-03    2.3459452820e+02
    3.3197125886e-03    2.3184281921e+02
    3.3296111505e-03    2.2914782715e+02
    3.3398645464e-03    2.2639775085e+02
    3.3496499527e-03    2.2381172180e+02
    3.3597841393e-03    2.2117266846e+02
    3.3698582556e-03    2.1858784485e+02
    3.3798730001e-03    2.1605583191e+02
    3.3898293041e-03    2.1357508850e+02
    3.3997253049e-03    2.1114483643e+02
    3.4099582117e-03    2.0866819763e+02
    3.4197398927e-03    2.0633491516e+02
    3.4298526589e-03    2.0395698547e+02
    3.4399053548e-03    2.0162739563e+02
    3.4498977475e-03    1.9934471130e+02
    3.4598314669e-03    1.9710772705e+02
    3.4697034862e-03    1.9491566467e+02
    3.4798965789e-03    1.9268452454e+02
    3.4896528814e-03    1.9057902527e+02
    3.4997242037e-03    1.8843574524e+02
    3.5097340588e-03    1.8633555603e+02
    3.5196833778e-03    1.8427716064e+02
    3.5299367737e-03    1.8218562317e+02
    3.5397603642e-03    1.8020988464e+02
    3.5498889629e-03    1.7820085144e+02
    3.5599544644e-03    1.7623219299e+02
    3.5699571017e-03    1.7430287170e+02
    3.5798975732e-03    1.7241180420e+02
    3.5897758789e-03    1.7055804443e+02
    3.5999405663e-03    4.3859814453e+02
    3.6096933763e-03    2.5111302734e+04
    3.6197314039e-03    2.5611328125e+04
    3.6297051702e-03    2.6101822266e+04
    3.6399548408e-03    2.6600611328e+04
    3.6497984547e-03    2.7074392578e+04
    3.6599144805e-03    2.7555681641e+04
    3.6699632183e-03    2.8028556641e+04
    3.6799444351e-03    2.8493345703e+04
    3.6898588296e-03    2.8950406250e+04
    3.6997068673e-03    2.9400123047e+04
    3.7098138127e-03    2.9857453125e+04
    3.7198504433e-03    3.0307677734e+04
    3.7298172247e-03    3.0751173828e+04
    3.7397143897e-03    3.1188353516e+04
    3.7498578895e-03    3.1633498047e+04
    3.7599275820e-03    3.2072751953e+04
    3.7699241657e-03    3.2506248047e+04
    3.7798476405e-03    3.2934074219e+04
    3.7896982394e-03    3.3356675781e+04
    3.7997807376e-03    3.3787746094e+04
    3.8097857032e-03    3.4214535156e+04
    3.8197138347e-03    3.4637214844e+04
    3.8298624568e-03    3.5068480469e+04
    3.8399295881e-03    3.5495589844e+04
    3.8499159273e-03    3.5918796875e+04
    3.8598210085e-03    3.6338261719e+04
    3.8699328434e-03    3.6766234375e+04
    3.8799585309e-03    3.7190421875e+04
    3.8898983039e-03    3.7610980469e+04
    3.8997521624e-03    3.8027984375e+04
    3.9097983390e-03    3.8453242188e+04
    3.9197532460e-03    3.8874820312e+04
    3.9298897609e-03    3.9304195312e+04
    3.9399298839e-03    3.9729371094e+04
    3.9498736151e-03    4.0150210938e+04
    3.9599849842e-03    4.0578042969e+04
    3.9699934423e-03    4.1001707031e+04
    3.9798994549e-03    4.1421308594e+04
    3.9899586700e-03    4.1847617188e+04
    3.9999084547e-03    4.2269359375e+04
    4.0099993348e-03    4.2697066406e+04
    4.0199728683e-03    4.3119886719e+04
    4.0298299864e-03    4.3537906250e+04
    4.0398109704e-03    4.3961386719e+04
    4.0499055758e-03    4.4389910156e+04
    4.0598674677e-03    4.4813089844e+04
    4.0699280798e-03    4.5240699219e+04
    4.0798461996e-03    4.5662324219e+04
    4.0898467414e-03    4.6087355469e+04
    4.0999166667e-03    4.6515468750e+04
    4.1098245420e-03    4.6937191406e+04
    4.1199969128e-03    4.7370746094e+04
    4.1299862787e-03    4.7796824219e+04
    4.1399956681e-03    4.8223781250e+04
    4.1498062201e-03    4.8642359375e+04
    4.1598086245e-03    4.9069558594e+04
    4.1699693538e-03    4.9504234375e+04
    4.1798762977e-03    4.9928625000e+04
    4.1898861527e-03    5.0357750000e+04
    4.1999546811e-03    5.0789582031e+04
    4.2098625563e-03    5.1214738281e+04
    4.2198994197e-03    5.1645828125e+04
    4.2299767956e-03    5.2079265625e+04
    4.2399875820e-03    5.2510550781e+04
    4.2499313131e-03    5.2939714844e+04
    4.2599602602e-03    5.3373363281e+04
    4.2699114420e-03    5.3804734375e+04
    4.2799138464e-03    5.4236699219e+04
    4.2898673564e-03    5.4665300781e+04
    4.2999489233e-03    5.5099917969e+04
    4.3099573813e-03    5.5532957031e+04
    4.3199425563e-03    5.5965925781e+04
    4.3298760429e-03    5.6397250000e+04
    4.3398998678e-03    5.6833300781e+04
    4.3499371968e-03    5.7270535156e+04
    4.3599279597e-03    5.7706488281e+04
    4.3699461967e-03    5.8145531250e+04
    4.3799565174e-03    5.8582910156e+04
    4.3899319135e-03    5.9020113281e+04
    4.3999943882e-03    5.9461511719e+04
    4.4098543003e-03    5.9894699219e+04
    4.4199889526e-03    6.0340542969e+04
    4.4298572466e-03    6.0776957031e+04
    4.4398456812e-03    6.1217746094e+04
    4.4498876669e-03    6.1662800781e+04
    4.4598700479e-03    6.2104972656e+04
    4.4698868878e-03    6.2549812500e+04
    4.4798324816e-03    6.2991949219e+04
    4.4899908826e-03    6.3444703125e+04
    4.4998815283e-03    6.3886285156e+04
    4.5099803247e-03    6.4338847656e+04
    4.5199929737e-03    6.4787140625e+04
    4.5298435725e-03    6.5229847656e+04
    4.5399507508e-03    6.5684507812e+04
    4.5499117114e-03    6.6133718750e+04
    4.5599313453e-03    6.6586984375e+04
    4.5699873008e-03    6.7041835938e+04
    4.5799156651e-03    6.7492367188e+04
    4.5898775570e-03    6.7945726562e+04
    4.5998790301e-03    6.8401890625e+04
    4.6099349856e-03    6.8860781250e+04
    4.6198256314e-03    6.9313640625e+04
    4.6299700625e-03    6.9779546875e+04
    4.6399296261e-03    7.0237671875e+04
    4.6499664895e-03    7.0699710938e+04
    4.6598003246e-03    7.1154054688e+04
    4.6699219383e-03    7.1623015625e+04
    4.6798284166e-03    7.2083320312e+04
    4.6898145229e-03    7.2548507812e+04
    4.6999952756e-03    7.3023640625e+04
    4.7098426148e-03    7.3482703125e+04
    4.7199083492e-03    7.3954140625e+04
    4.7297980636e-03    7.4419640625e+04
    4.7399648465e-03    7.4900203125e+04
    4.7498955391e-03    7.5370671875e+04
    4.7599454410e-03    7.5847445312e+04
    4.7699282877e-03    7.6321671875e+04
    4.7798175365e-03    7.6792875000e+04
    4.7898911871e-03    7.7274687500e+04
    4.7997971997e-03    7.7750179688e+04
    4.8099714331e-03    7.8240468750e+04
    4.8199240118e-03    7.8721078125e+04
    4.8299571499e-03    7.9207695312e+04
    4.8399814405e-03    7.9693898438e+04
    4.8498543911e-03    8.0174632812e+04
    4.8599606380e-03    8.0667156250e+04
    4.8698759638e-03    8.1152890625e+04
    4.8798481002e-03    8.1642875000e+04
    4.8898160458e-03    8.2135718750e+04
    4.8998440616e-03    8.2632359375e+04
    4.9098832533e-03    8.3131640625e+04
    4.9199606292e-03    8.3633242188e+04
    4.9298363738e-03    8.4127179688e+04
    4.9399728887e-03    8.4635164062e+04
    4.9499012530e-03    8.5136015625e+04
    4.9598631449e-03    8.5639421875e+04
    4.9698497169e-03    8.6146976562e+04
    4.9798614345e-03    8.6656820312e+04
    4.9898908474e-03    8.7170726562e+04
    4.9999533221e-03    8.7687718750e+04
    5.0098109059e-03    8.8196460938e+04
    5.0199045800e-03    8.8719398438e+04
    5.0298115239e-03    8.9234460938e+04
    5.0399517640e-03    8.9764617188e+04
    5.0498922355e-03    9.0285656250e+04
    5.0598555245e-03    9.0810523438e+04
    5.0698337145e-03    9.1338132812e+04
    5.0798300654e-03    9.1870148438e+04
    5.0898441114e-03    9.2406210938e+04
    5.0998865627e-03    9.2943351562e+04
    5.1099341363e-03    9.3483531250e+04
    5.1197698340e-03    9.4018570312e+04
    5.1298644394e-03    9.4570812500e+04
    5.1399604417e-03    9.5118414062e+04
    5.1498441026e-03    9.5653281250e+04
    5.1599838771e-03    9.6219210938e+04
    5.1698964089e-03    9.6786757812e+04
    5.1798210479e-03    9.7341539062e+04
    5.1897699013e-03    9.7876437500e+04
    5.1999539137e-03    9.8433085938e+04
    5.2099172026e-03    9.9016625000e+04
    5.2198953927e-03    9.9623375000e+04
    5.2298880182e-03    1.0020821094e+05
    5.2398811094e-03    1.0075681250e+05
    5.2498863079e-03    1.0129802344e+05
    5.2599064074e-03    1.0186800781e+05
    5.2699269727e-03    1.0247943750e+05
    5.2799535915e-03    1.0311266406e+05
    5.2899895236e-03    1.0373741406e+05
    5.2997982129e-03    1.0432733594e+05
    5.3098401986e-03    1.0491689844e+05
    5.3198859096e-03    1.0550685156e+05
    5.3299325518e-03    1.0610855469e+05
    5.3399791941e-03    1.0672210156e+05
    5.3497930057e-03    1.0732652344e+05
    5.3598405793e-03    1.0794942969e+05
    5.3698886186e-03    1.0858205469e+05
    5.3799366578e-03    1.0922733594e+05
    5.3899856284e-03    1.0988192969e+05
    5.3998008370e-03    1.1052596094e+05
    5.4098493420e-03    1.1118783594e+05
    5.4198978469e-03    1.1185121875e+05
    5.4299463518e-03    1.1251593750e+05
    5.4399943911e-03    1.1318386719e+05
    5.4498086683e-03    1.1384297656e+05
    5.4598562419e-03    1.1452789844e+05
    5.4699033499e-03    1.1522361719e+05
    5.4799499922e-03    1.1592836719e+05
    5.4899961688e-03    1.1663971094e+05
    5.4998081177e-03    1.1733878125e+05
    5.5098533630e-03    1.1805713281e+05
    5.5198981427e-03    1.1877760156e+05
    5.5299424566e-03    1.1950247656e+05
    5.5399863049e-03    1.2023535156e+05
    5.5497959256e-03    1.2096214844e+05
    5.5598383769e-03    1.2171822656e+05
    5.5698798969e-03    1.2248432031e+05
    5.5799209513e-03    1.2326044531e+05
    5.5899620056e-03    1.2404871094e+05
    5.5997683667e-03    1.2483366406e+05
    5.6098056957e-03    1.2565674219e+05
    5.6198434904e-03    1.2649541406e+05
    5.6298836134e-03    1.2733672656e+05
    5.6399176829e-03    1.2817289844e+05
    5.6499512866e-03    1.2901115625e+05
    5.6599974632e-03    1.2986927344e+05
    5.6698024273e-03    1.3073871094e+05
    5.6798383594e-03    1.3165960938e+05
    5.6898947805e-03    1.4138034375e+05
    5.6999572553e-03    3.1966193750e+05
    5.7097761892e-03    3.1738687500e+05
    5.7198456489e-03    3.1468515625e+05
    5.7299379259e-03    3.1200093750e+05
    5.7397801429e-03    3.0947434375e+05
    5.7498672977e-03    3.0695109375e+05
    5.7599823922e-03    3.0448303125e+05
    5.7698581368e-03    3.0212534375e+05
    5.7799629867e-03    2.9974525000e+05
    5.7898606174e-03    2.9744356250e+05
    5.7997689582e-03    2.9518275000e+05
    5.8099026792e-03    2.9293375000e+05
    5.8198138140e-03    2.9080459375e+05
    5.8299801312e-03    2.8867578125e+05
    5.8399126865e-03    2.8662790625e+05
    5.8498457074e-03    2.8459803125e+05
    5.8597926982e-03    2.8259868750e+05
    5.8699864894e-03    2.8060153125e+05
    5.8799479157e-03    2.7871006250e+05
    5.8899158612e-03    2.7686478125e+05
    5.8998921886e-03    2.7504434375e+05
    5.9098755009e-03    2.7324000000e+05
    5.9198676609e-03    2.7146237500e+05
    5.9298672713e-03    2.6973221875e+05
    5.9398687445e-03    2.6805331250e+05
    5.9498790652e-03    2.6640740625e+05
    5.9599005617e-03    2.6477584375e+05
    5.9699267149e-03    2.6316287500e+05
    5.9799551964e-03    2.6158639062e+05
    5.9899915941e-03    2.6005804688e+05
    5.9998012148e-03    2.5859314062e+05
    6.0098515823e-03    2.5710992188e+05
    6.0199047439e-03    2.5564957812e+05
    6.0299667530e-03    2.5421631250e+05
    6.0398001224e-03    2.5285856250e+05
    6.0498784296e-03    2.5149142188e+05
    6.0599595308e-03    2.5013792188e+05
    6.0698068701e-03    2.4883604688e+05
    6.0799038038e-03    2.4753617188e+05
    6.0897655785e-03    2.4629929688e+05
    6.0998657718e-03    2.4505095312e+05
    6.1099752784e-03    2.4381529688e+05
    6.1198510230e-03    2.4263337500e+05
    6.1299772933e-03    2.4145382812e+05
    6.1398623511e-03    2.4032379688e+05
    6.1499928124e-03    2.3918145312e+05
    6.1598932371e-03    2.3808207812e+05
    6.1697987840e-03    2.3700954688e+05
    6.1799488030e-03    2.3593262500e+05
    6.1898576096e-03    2.3489729688e+05
    6.1997757293e-03    2.3387760938e+05
    6.2099420466e-03    2.3285643750e+05
    6.2198699452e-03    2.3188050000e+05
    6.2297978438e-03    2.3091917188e+05
    6.2399748713e-03    2.2994957812e+05
    6.2499209307e-03    2.2902454688e+05
    6.2598679215e-03    2.2811542188e+05
    6.2698209658e-03    2.2722504688e+05
    6.2797726132e-03    2.2634479688e+05
    6.2899822369e-03    2.2546512500e+05
    6.2999469228e-03    2.2462182812e+05
    6.3099148683e-03    2.2379189062e+05
    6.3198865391e-03    2.2297773438e+05
    6.3298647292e-03    2.2218031250e+05
    6.3398522325e-03    2.2139720312e+05
    6.3498355448e-03    2.2062704688e+05
    6.3598286361e-03    2.1987320312e+05
    6.3698221929e-03    2.1913275000e+05
    6.3798278570e-03    2.1840667188e+05
    6.3898297958e-03    2.1769406250e+05
    6.3998326659e-03    2.1699635938e+05
    6.4098471776e-03    2.1631073438e+05
    6.4198621549e-03    2.1563450000e+05
    6.4298883080e-03    2.1497214062e+05
    6.4399014227e-03    2.1432339062e+05
    6.4499303699e-03    2.1369201562e+05
    6.4599597827e-03    2.1307879688e+05
    6.4699989744e-03    2.1247793750e+05
    6.4797908999e-03    2.1190204688e+05
    6.4898245037e-03    2.1131579688e+05
    6.4998748712e-03    2.1073068750e+05
    6.5099205822e-03    2.1015423438e+05
    6.5199779347e-03    2.0959343750e+05
    6.5297801048e-03    2.0906118750e+05
    6.5398379229e-03    2.0853145312e+05
    6.5499031916e-03    2.0801529688e+05
    6.5599656664e-03    2.0751098438e+05
    6.5697901882e-03    2.0702304688e+05
    6.5798545256e-03    2.0652935938e+05
    6.5899332985e-03    2.0604067188e+05
    6.5997657366e-03    2.0557057812e+05
    6.6098463722e-03    2.0509310938e+05
    6.6199228168e-03    2.0462179688e+05
    6.6297566518e-03    2.0416529688e+05
    6.6398549825e-03    2.0370017188e+05
    6.6499570385e-03    2.0323679688e+05
    6.6598113626e-03    2.0278501562e+05
    6.6699078307e-03    2.0232026562e+05
    6.6797565669e-03    2.0186431250e+05
    6.6898530349e-03    2.0139204688e+05
    6.6999541596e-03    2.0091343750e+05
    6.7098173313e-03    2.0044062500e+05
    6.7199259065e-03    1.9995204688e+05
    6.7297848873e-03    1.9947385938e+05
    6.7398888059e-03    1.9898454688e+05
    6.7499913275e-03    1.9849729688e+05
    6.7598456517e-03    1.9802356250e+05
    6.7699472420e-03    1.9753770312e+05
    6.7798094824e-03    1.9706182812e+05
    6.7899269052e-03    1.9656398438e+05
    6.7997965962e-03    1.9607106250e+05
    6.8099112250e-03    1.9556154688e+05
    6.8197776563e-03    1.9506389062e+05
    6.8298894912e-03    1.9456057812e+05
    6.8397545256e-03    1.9407618750e+05
    6.8498658948e-03    1.9358514062e+05
    6.8599772640e-03    1.9309567188e+05
    6.8698422983e-03    1.9261482812e+05
    6.8799536675e-03    1.9211931250e+05
    6.8898182362e-03    1.9163625000e+05
    6.8999291398e-03    1.9114410938e+05
    6.9097932428e-03    1.9066917188e+05
    6.9199055433e-03    1.9018798438e+05
    6.9297724403e-03    1.8972098438e+05
    6.9398852065e-03    1.8924320312e+05
    6.9499975070e-03    1.8876748438e+05
    6.9598630071e-03    1.8830482812e+05
    6.9699743763e-03    1.8783279688e+05
    6.9798384793e-03    1.8737700000e+05
    6.9899489172e-03    1.8691451562e+05
    6.9998125546e-03    1.8646607812e+05
    7.0099225268e-03    1.8600512500e+05
    7.0197861642e-03    1.8555910938e+05
    7.0298966020e-03    1.8510668750e+05
    7.0397607051e-03    1.8466870312e+05
    7.0498706773e-03    1.8421812500e+05
    7.0599806495e-03    1.8377570312e+05
    7.0698433556e-03    1.8334567188e+05
    7.0799519308e-03    1.8290429688e+05
    7.0898132399e-03    1.8248032812e+05
    7.0999208838e-03    1.8204795312e+05
    7.1097812615e-03    1.8162723438e+05
    7.1198884398e-03    1.8120110938e+05
    7.1299951524e-03    1.8077617188e+05
    7.1398555301e-03    1.8036529688e+05
    7.1499622427e-03    1.7994687500e+05
    7.1598221548e-03    1.7953982812e+05
    7.1699288674e-03    1.7912745312e+05
    7.1797883138e-03    1.7872560938e+05
    7.1898950264e-03    1.7831826562e+05
    7.1997563355e-03    1.7792248438e+05
    7.2098667733e-03    1.7751979688e+05
    7.2199758142e-03    1.7711987500e+05
    7.2298366576e-03    1.7673175000e+05
    7.2399433702e-03    1.7633685938e+05
    7.2498028167e-03    1.7595293750e+05
    7.2599076666e-03    1.7556267188e+05
    7.2697671130e-03    1.7518350000e+05
    7.2798770852e-03    1.7479807812e+05
    7.2899912484e-03    1.7441446875e+05
    7.2998581454e-03    1.7404364062e+05
    7.3099704459e-03    1.7366410938e+05
    7.3198354803e-03    1.7329667188e+05
    7.3299468495e-03    1.7292289062e+05
    7.3398104869e-03    1.7255998438e+05
    7.3499227874e-03    1.7218989062e+05
    7.3597915471e-03    1.7183139062e+05
    7.3699080385e-03    1.7146670312e+05
    7.3797763325e-03    1.7111201562e+05
    7.3898904957e-03    1.7075087500e+05
    7.3997573927e-03    1.7039970312e+05
    7.4098701589e-03    1.7004201562e+05
    7.4199880473e-03    1.6968648438e+05
    7.4298609979e-03    1.6934265625e+05
    7.4399798177e-03    1.6899332812e+05
    7.4498509057e-03    1.6865476562e+05
    7.4599678628e-03    1.6830954688e+05
    7.4698389508e-03    1.6797345312e+05
    7.4799614958e-03    1.6762985938e+05
    7.4898367748e-03    1.6729482812e+05
    7.4999579228e-03    1.6695334375e+05
    7.5098318048e-03    1.6662232812e+05
    7.5199515559e-03    1.6628571875e+05
    7.5298282318e-03    1.6595995312e+05
    7.5399531052e-03    1.6562782812e+05
    7.5498297811e-03    1.6530585938e+05
    7.5599532574e-03    1.6497653125e+05
    7.5698290020e-03    1.6465693750e+05
    7.5799548067e-03    1.6432981250e+05
    7.5898342766e-03    1.6401146875e+05
    7.5999596156e-03    1.6368700000e+05
    7.6098381542e-03    1.6337307812e+05
    7.6199634932e-03    1.6305264062e+05
    7.6298438944e-03    1.6274159375e+05
    7.6399710961e-03    1.6242518750e+05
    7.6498505659e-03    1.6211890625e+05
    7.6599763706e-03    1.6180548438e+05
    7.6698577031e-03    1.6150093750e+05
    7.6799863018e-03    1.6118931250e+05
    7.6898667030e-03    1.6088617188e+05
    7.6999943703e-03    1.6057626562e+05
    7.7098752372e-03    1.6027534375e+05
    7.7197570354e-03    1.5997576562e+05
    7.7298856340e-03    1.5967050000e+05
    7.7397669666e-03    1.5937479688e+05
    7.7498950996e-03    1.5907340625e+05
    7.7597768977e-03    1.5878079688e+05
    7.7699054964e-03    1.5848150000e+05
    7.7797863632e-03    1.5819003125e+05
    7.7899149619e-03    1.5789185938e+05
    7.7997962944e-03    1.5760231250e+05
    7.8099239618e-03    1.5730621875e+05
    7.8198052943e-03    1.5701957812e+05
    7.8299324960e-03    1.5672690625e+05
    7.8398138285e-03    1.5644151562e+05
    7.8499410301e-03    1.5614979688e+05
    7.8598214313e-03    1.5586485938e+05
    7.8699486330e-03    1.5557446875e+05
    7.8798290342e-03    1.5529165625e+05
    7.8899553046e-03    1.5500395312e+05
    7.8998357058e-03    1.5472315625e+05
    7.9099619761e-03    1.5443726562e+05
    7.9198414460e-03    1.5415767188e+05
    7.9299686477e-03    1.5387151562e+05
    7.9398481175e-03    1.5359503125e+05
    7.9499743879e-03    1.5331029688e+05
    7.9598529264e-03    1.5303501562e+05
    7.9699791968e-03    1.5275207812e+05
    7.9798577353e-03    1.5247631250e+05
    7.9899840057e-03    1.5219518750e+05
    7.9998616129e-03    1.5192268750e+05
    8.0099878833e-03    1.5164523438e+05
    8.0198664218e-03    1.5137295312e+05
    8.0299926922e-03    1.5109103125e+05
    8.0398730934e-03    1.5081660938e+05
    8.0497534946e-03    1.5054792188e+05
    8.0598797649e-03    1.5028050000e+05
    8.0697583035e-03    1.5001948438e+05
    8.0798836425e-03    1.4974214062e+05
    8.0897612497e-03    1.4945982812e+05
    8.0998875201e-03    1.4917229688e+05
    8.1097660586e-03    1.4890764062e+05
    8.1198932603e-03    1.4865685938e+05
    8.1297745928e-03    1.4841954688e+05
    8.1399017945e-03    1.4815792188e+05
    8.1497812644e-03    1.4787178125e+05
    8.1599084660e-03    1.4756400000e+05
    8.1697879359e-03    1.4727550000e+05
    8.1799142063e-03    1.4700495312e+05
    8.1897927448e-03    1.4676729688e+05
    8.1999190152e-03    1.4654076562e+05
    8.2097975537e-03    1.4631531250e+05
    8.2199238241e-03    1.4605617188e+05
    8.2298023626e-03    1.4577332812e+05
    8.2399277017e-03    1.4547159375e+05
    8.2498053089e-03    1.4518298438e+05
    8.2599297166e-03    1.4490106250e+05
    8.2698063925e-03    1.4463876562e+05
    8.2799308002e-03    1.4438131250e+05
    8.2898065448e-03    1.4413589062e+05
    8.2999300212e-03    1.4388660938e+05
    8.3098076284e-03    1.4364070312e+05
    8.3199320361e-03    1.4338800000e+05
    8.3298115060e-03    1.4314210938e+05
    8.3399387076e-03    1.4289329688e+05
    8.3498172462e-03    1.4264979688e+05
    8.3599425852e-03    1.4239654688e+05
    8.3698201925e-03    1.4214362500e+05
    8.3799446002e-03    1.4188075000e+05
    8.3898222074e-03    1.4162284375e+05
    8.3999456838e-03    1.4135881250e+05
    8.4098251536e-03    1.4110278125e+05
    8.4199514240e-03    1.4084323438e+05
    8.4298308939e-03    1.4059414062e+05
    8.4399562329e-03    1.4034254688e+05
    8.4498347715e-03    1.4010014062e+05
    8.4599601105e-03    1.3985129688e+05
    8.4698377177e-03    1.3960643750e+05
    8.4799630567e-03    1.3935273438e+05
    8.4898406640e-03    1.3910292188e+05
    8.4999650717e-03    1.3884523438e+05
    8.5098426789e-03    1.3859282812e+05
    8.5199670866e-03    1.3833587500e+05
    8.5298437625e-03    1.3808828125e+05
    8.5399672389e-03    1.3783865625e+05
    8.5498439148e-03    1.3759956250e+05
    8.5599673912e-03    1.3735875000e+05
    8.5698440671e-03    1.3712568750e+05
    8.5799666122e-03    1.3688679688e+05
    8.5898432881e-03    1.3665260938e+05
    8.5999676958e-03    1.3641190625e+05
    8.6098443717e-03    1.3617789062e+05
    8.6199669167e-03    1.3593959375e+05
    8.6298454553e-03    1.3570703125e+05
    8.6399735883e-03    1.3546476562e+05
    8.6498567834e-03    1.3522276562e+05
    8.6599858478e-03    1.3496635938e+05
    8.6698690429e-03    1.3471270312e+05
    8.6797550321e-03    1.3446360938e+05
    8.6898943409e-03    1.3421996875e+05
    8.6997896433e-03    1.3399479688e+05
    8.7099326774e-03    1.3377115625e+05
    8.7198317051e-03    1.3355106250e+05
    8.7299849838e-03    1.3331239062e+05
    8.7398979813e-03    1.3306542188e+05
    8.7498184294e-03    1.3281346875e+05
    8.7599894032e-03    1.3256121875e+05
    8.7699191645e-03    1.3232565625e+05
    8.7798563763e-03    1.3209881250e+05
    8.7898019701e-03    1.3187606250e+05
    8.7997531518e-03    1.3164915625e+05
    8.8099623099e-03    1.3140650000e+05
    8.8199293241e-03    1.3116075000e+05
    8.8299000636e-03    1.3091541406e+05
    8.8398801163e-03    1.3067980469e+05
    8.8498676196e-03    1.3045583594e+05
    8.8598662987e-03    1.3023512500e+05
    8.8698714972e-03    1.3000431250e+05
    8.8798776269e-03    1.2976042969e+05
    8.8898912072e-03    1.2951347656e+05
    8.8999141008e-03    1.2927810156e+05
    8.9099481702e-03    1.2905322656e+05
    8.9199878275e-03    1.2882922656e+05
    8.9297806844e-03    1.2859964844e+05
    8.9398249984e-03    1.2835533594e+05
    8.9498823509e-03    1.2811342969e+05
    8.9599480852e-03    1.2788292969e+05
    8.9697688818e-03    1.2766484375e+05
    8.9798448607e-03    1.2743384375e+05
    8.9899236336e-03    1.2719292969e+05
    8.9997574687e-03    1.2695691406e+05
    9.0098548681e-03    1.2672403906e+05
    9.0199606493e-03    1.2649884375e+05
    9.0298159048e-03    1.2627422656e+05
    9.0399291366e-03    1.2603365625e+05
    9.0497899801e-03    1.2579971094e+05
    9.0599143878e-03    1.2556846875e+05
    9.0697938576e-03    1.2534514844e+05
    9.0799322352e-03    1.2510935156e+05
    9.0898210183e-03    1.2487483594e+05
    9.0999687091e-03    1.2463833594e+05
    9.1098668054e-03    1.2441489844e+05
    9.1197732836e-03    1.2418937500e+05
    9.1299423948e-03    1.2395019531e+05
    9.1398581862e-03    1.2371671094e+05
    9.1497777030e-03    1.2348977344e+05
    9.1599570587e-03    1.2325867969e+05
    9.1698868200e-03    1.2302794531e+05
    9.1798268259e-03    1.2279424219e+05
    9.1897742823e-03    1.2256403906e+05
    9.1999750584e-03    1.2233107031e+05
    9.2099253088e-03    1.2210042969e+05
    9.2198839411e-03    1.2186772656e+05
    9.2298462987e-03    1.2163678906e+05
    9.2398179695e-03    1.2140733594e+05
    9.2497877777e-03    1.2117514844e+05
    9.2597594485e-03    1.2094067969e+05
    9.2699928209e-03    1.2070343750e+05
    9.2799821869e-03    1.2047497656e+05
    9.2899762094e-03    1.2024605469e+05
    9.2999776825e-03    1.2001653906e+05
    9.3099763617e-03    1.1978710156e+05
    9.3199769035e-03    1.1955382031e+05
    9.3299886212e-03    1.1931414844e+05
    9.3397498131e-03    1.1907569531e+05
    9.3497699127e-03    1.1883250000e+05
    9.3597946689e-03    1.1859412500e+05
    9.3698156998e-03    1.1836072656e+05
    9.3798385933e-03    1.1813571875e+05
    9.3898801133e-03    1.1791283594e+05
    9.3999234959e-03    1.1768896094e+05
    9.4099724665e-03    1.1745892969e+05
    9.4197643921e-03    1.1723090625e+05
    9.4298133627e-03    1.1699265625e+05
    9.4398641959e-03    1.1675241406e+05
    9.4499317929e-03    1.1651215625e+05
    9.4599975273e-03    1.1627272656e+05
    9.4698118046e-03    1.1603905469e+05
    9.4798859209e-03    1.1579514844e+05
    9.4899609685e-03    1.1554750000e+05
    9.4997817650e-03    1.1530296094e+05
    9.5098745078e-03    1.1505389844e+05
    9.5199607313e-03    1.1481062500e+05
    9.5297954977e-03    1.1458238281e+05
    9.5398966223e-03    1.1435793750e+05
    9.5499940217e-03    1.1413497656e+05
    9.5598446205e-03    1.1391328906e+05
    9.5699606463e-03    1.1367828125e+05
    9.5798093826e-03    1.1343997656e+05
    9.5899254084e-03    1.1318709375e+05
    9.5997937024e-03    1.1293782031e+05
    9.6099162474e-03    1.1268477344e+05
    9.6197901294e-03    1.1244241406e+05
    9.6299266443e-03    1.1219891406e+05
    9.6398005262e-03    1.1196686719e+05
    9.6499389037e-03    1.1173080469e+05
    9.6598314121e-03    1.1149847656e+05
    9.6699791029e-03    1.1125452344e+05
    9.6798744053e-03    1.1100993750e+05
    9.6897706389e-03    1.1076053906e+05
    9.6999276429e-03    1.1050452344e+05
    9.7098313272e-03    1.1025925000e+05
    9.7197443247e-03    1.1002025781e+05
    9.7299134359e-03    1.0978110156e+05
    9.7398255020e-03    1.0955019531e+05
    9.7497403622e-03    1.0931638281e+05
    9.7599150613e-03    1.0907082031e+05
    9.7698410973e-03    1.0882591406e+05
    9.7797727212e-03    1.0857822656e+05
    9.7899623215e-03    1.0832469531e+05
    9.7998948768e-03    1.0807965625e+05
    9.8098283634e-03    1.0783524219e+05
    9.8197562620e-03    1.0759035156e+05
    9.8299607635e-03    1.0733910156e+05
    9.8399128765e-03    1.0709493750e+05
    9.8498659208e-03    1.0685147656e+05
    9.8598226905e-03    1.0661022656e+05
    9.8697794601e-03    1.0636864844e+05
    9.8799914122e-03    1.0611796875e+05
    9.8899491131e-03    1.0587014844e+05
    9.8999142647e-03    1.0561889844e+05
    9.9098794162e-03    1.0536914844e+05
    9.9198557436e-03    1.0512061719e+05
    9.9298330024e-03    1.0487633594e+05
    9.9398102611e-03    1.0463366406e+05
    9.9497893825e-03    1.0439016406e+05
    9.9597694352e-03    1.0414232031e+05
    9.9697504193e-03    1.0389105469e+05
    9.9797425792e-03    1.0363775000e+05
    9.9900001660e-03    1.0337991406e+05
    9.9999960512e-03    1.0313392969e+05
    1.0009996593e-02    1.0289186719e+05
    1.0019998066e-02    1.0264864844e+05
    1.0029999539e-02    1.0240060156e+05
    1.0039742105e-02    1.0215346094e+05
    1.0049752891e-02    1.0189516406e+05
    1.0059766471e-02    1.0163558594e+05
    1.0069785640e-02    1.0137977344e+05
    1.0079804808e-02    1.0113397656e+05
    1.0089827701e-02    1.0089684375e+05
    1.0099852458e-02    1.0066116406e+05
    1.0109880939e-02    1.0042227344e+05
    1.0119910352e-02    1.0017696094e+05
    1.0129944421e-02    9.9920101562e+04
    1.0139983147e-02    9.9655757812e+04
    1.0149761103e-02    9.9398492188e+04
    1.0159805417e-02    9.9134351562e+04
    1.0169850662e-02    9.8875070312e+04
    1.0179899633e-02    9.8622023438e+04
    1.0189948604e-02    9.8372398438e+04
    1.0199999437e-02    9.8127937500e+04
    1.0209791362e-02    9.7891312500e+04
    1.0219852440e-02    9.7647351562e+04
    1.0229917243e-02    9.7402218750e+04
    1.0239982046e-02    9.7153539062e+04
    1.0249784216e-02    9.6908687500e+04
    1.0259855539e-02    9.6654617188e+04
    1.0269927792e-02    9.6399179688e+04
    1.0279738344e-02    9.6152210938e+04
    1.0289819911e-02    9.5899351562e+04
    1.0299905203e-02    9.5648468750e+04
    1.0309992358e-02    9.5397960938e+04
    1.0319813155e-02    9.5153335938e+04
    1.0329900309e-02    9.4900992188e+04
    1.0339991190e-02    9.4647664062e+04
    1.0349820368e-02    9.4401406250e+04
    1.0359918699e-02    9.4148554688e+04
    1.0369756259e-02    9.3902835938e+04
    1.0379863903e-02    9.3650507812e+04
    1.0389971547e-02    9.3398867188e+04
    1.0399812832e-02    9.3153351562e+04
    1.0409922339e-02    9.2901023438e+04
    1.0419770144e-02    9.2655375000e+04
    1.0429889895e-02    9.2403468750e+04
    1.0439747013e-02    9.2158164062e+04
    1.0449871421e-02    9.1906531250e+04
    1.0459999554e-02    9.1655289062e+04
    1.0469860397e-02    9.1410898438e+04
    1.0479987599e-02    9.1160101562e+04
    1.0489852168e-02    9.0915960938e+04
    1.0499990545e-02    9.0664562500e+04
    1.0509864427e-02    9.0418804688e+04
    1.0519741103e-02    9.0171351562e+04
    1.0529886931e-02    8.9915531250e+04
    1.0539768264e-02    8.9665218750e+04
    1.0549917817e-02    8.9408054688e+04
    1.0559801012e-02    8.9158585938e+04
    1.0569955222e-02    8.8903867188e+04
    1.0579848662e-02    8.8657718750e+04
    1.0589744896e-02    8.8413445312e+04
    1.0599910282e-02    8.8164226562e+04
    1.0609808378e-02    8.7921851562e+04
    1.0619977489e-02    8.7671070312e+04
    1.0629883036e-02    8.7423023438e+04
    1.0639788583e-02    8.7169757812e+04
    1.0649965145e-02    8.6903757812e+04
    1.0659880005e-02    8.6640257812e+04
    1.0669797659e-02    8.6375289062e+04
    1.0679983534e-02    8.6104484375e+04
    1.0689904913e-02    8.5843335938e+04
    1.0699829087e-02    8.5586039062e+04
    1.0709756054e-02    8.5333429688e+04
    1.0719954967e-02    8.5077789062e+04
    1.0729887523e-02    8.4830671875e+04
    1.0739823803e-02    8.4583648438e+04
    1.0749764740e-02    8.4335960938e+04
    1.0759973899e-02    8.4080296875e+04
    1.0769915767e-02    8.3829789062e+04
    1.0779864155e-02    8.3578007812e+04
    1.0789815336e-02    8.3324843750e+04
    1.0799767449e-02    8.3070687500e+04
    1.0809992440e-02    8.2808710938e+04
    1.0819952935e-02    8.2554023438e+04
    1.0829916224e-02    8.2301242188e+04
    1.0839878581e-02    8.2051929688e+04
    1.0849842802e-02    8.1806820312e+04
    1.0859814472e-02    8.1565257812e+04
    1.0869789869e-02    8.1326226562e+04
    1.0879765265e-02    8.1087703125e+04
    1.0889745317e-02    8.0847460938e+04
    1.0899730958e-02    8.0605367188e+04
    1.0909990408e-02    8.0355515625e+04
    1.0919982567e-02    8.0112468750e+04
    1.0929976590e-02    7.9870976562e+04
    1.0939972475e-02    7.9630312500e+04
    1.0949971154e-02    7.9386460938e+04
    1.0959966108e-02    7.9130906250e+04
    1.0969963856e-02    7.8851054688e+04
    1.0979969054e-02    7.8534750000e+04
    1.0989977978e-02    7.8176351562e+04
    1.0999992490e-02    7.7777406250e+04
    1.1009742506e-02    7.7356687500e+04
    1.1019768193e-02    7.6900820312e+04
    1.1029794812e-02    7.6429156250e+04
    1.1039822362e-02    7.5946429688e+04
    1.1049848050e-02    7.5458015625e+04
    1.1059872806e-02    7.4966023438e+04
    1.1069897562e-02    7.4472015625e+04
    1.1079921387e-02    7.3978218750e+04
    1.1089944281e-02    7.3484710938e+04
    1.1099967174e-02    7.2992929688e+04
    1.1109989136e-02    7.2502781250e+04
    1.1119741015e-02    7.2027875000e+04
    1.1129762046e-02    7.1541789062e+04
    1.1139781214e-02    7.1057867188e+04
    1.1149801314e-02    7.0576085938e+04
    1.1159822345e-02    7.0096718750e+04
    1.1169845238e-02    6.9620140625e+04
    1.1179871857e-02    6.9146609375e+04
    1.1189899407e-02    6.8676140625e+04
    1.1199926957e-02    6.8208609375e+04
    1.1209953576e-02    6.7743734375e+04
    1.1219980195e-02    6.7281367188e+04
    1.1229733936e-02    6.6834039062e+04
    1.1239757761e-02    6.6377257812e+04
    1.1249780655e-02    6.5923796875e+04
    1.1259802617e-02    6.5473824219e+04
    1.1269825511e-02    6.5027300781e+04
    1.1279848404e-02    6.4583859375e+04
    1.1289871298e-02    6.4143230469e+04
    1.1299896054e-02    6.3705167969e+04
    1.1309919879e-02    6.3268933594e+04
    1.1319942772e-02    6.2834855469e+04
    1.1329964735e-02    6.2404175781e+04
    1.1339985766e-02    6.1976339844e+04
    1.1349734850e-02    6.1563105469e+04
    1.1359754950e-02    6.1142015625e+04
    1.1369775049e-02    6.0723269531e+04
    1.1379795149e-02    6.0307128906e+04
    1.1389816180e-02    5.9893207031e+04
    1.1399837211e-02    5.9481761719e+04
    1.1409856379e-02    5.9073238281e+04
    1.1419874616e-02    5.8667562500e+04
    1.1429891922e-02    5.8264828125e+04
    1.1439909227e-02    5.7864582031e+04
    1.1449926533e-02    5.7466816406e+04
    1.1459943838e-02    5.7071421875e+04
    1.1469962075e-02    5.6678687500e+04
    1.1479978450e-02    5.6288589844e+04
    1.1489993893e-02    5.5901066406e+04
    1.1499738321e-02    5.5526300781e+04
    1.1509752832e-02    5.5143464844e+04
    1.1519767344e-02    5.4763015625e+04
    1.1529780924e-02    5.4385136719e+04
    1.1539795436e-02    5.4009890625e+04
    1.1549809016e-02    5.3637082031e+04
    1.1559821665e-02    5.3266464844e+04
    1.1569833383e-02    5.2898136719e+04
    1.1579844169e-02    5.2532363281e+04
    1.1589854956e-02    5.2168949219e+04
    1.1599865742e-02    5.1807488281e+04
    1.1609876528e-02    5.1448121094e+04
    1.1619887315e-02    5.1090984375e+04
    1.1629897170e-02    5.0735988281e+04
    1.1639906093e-02    5.0383218750e+04
    1.1649915017e-02    5.0032847656e+04
    1.1659923010e-02    4.9684886719e+04
    1.1669931002e-02    4.9339074219e+04
    1.1679939926e-02    4.8995363281e+04
    1.1689950712e-02    4.8653738281e+04
    1.1699960567e-02    4.8314238281e+04
    1.1709968559e-02    4.7977015625e+04
    1.1719977483e-02    4.7641925781e+04
    1.1729986407e-02    4.7308796875e+04
    1.1739994399e-02    4.6977355469e+04
    1.1749733239e-02    4.6656511719e+04
    1.1759743094e-02    4.6328550781e+04
    1.1769756675e-02    4.6002644531e+04
    1.1779773980e-02    4.5678937500e+04
    1.1789792217e-02    4.5357480469e+04
    1.1799808592e-02    4.5038074219e+04
    1.1809824035e-02    4.4720496094e+04
    1.1819836684e-02    4.4404656250e+04
    1.1829849333e-02    4.4090644531e+04
    1.1839861050e-02    4.3778675781e+04
    1.1849871837e-02    4.3468777344e+04
    1.1859882623e-02    4.3160699219e+04
    1.1869893409e-02    4.2854183594e+04
    1.1879905127e-02    4.2549351562e+04
    1.1889917776e-02    4.2246382812e+04
    1.1899931356e-02    4.1945035156e+04
    1.1909944937e-02    4.1645332031e+04
    1.1919957586e-02    4.1347703125e+04
    1.1929969303e-02    4.1051800781e+04
    1.1939980090e-02    4.0757394531e+04
    1.1949990876e-02    4.0465039062e+04
    1.1959999800e-02    4.0174273438e+04
    1.1969738640e-02    3.9892871094e+04
    1.1979746632e-02    3.9605546875e+04
    1.1989754625e-02    3.9319640625e+04
    1.1999762617e-02    3.9035437500e+04
    1.2009769678e-02    3.8752808594e+04
    1.2019776739e-02    3.8471871094e+04
    1.2029782869e-02    3.8192480469e+04
    1.2039788067e-02    3.7914761719e+04
    1.2049793266e-02    3.7638636719e+04
    1.2059797533e-02    3.7363812500e+04
    1.2069801800e-02    3.7090828125e+04
    1.2079805136e-02    3.6819175781e+04
    1.2089808472e-02    3.6549054688e+04
    1.2099810876e-02    3.6280843750e+04
    1.2109813280e-02    3.6014046875e+04
    1.2119814754e-02    3.5748726562e+04
    1.2129815295e-02    3.5485117188e+04
    1.2139815837e-02    3.5222937500e+04
    1.2149816379e-02    3.4962179688e+04
    1.2159815989e-02    3.4702953125e+04
    1.2169814669e-02    3.4445218750e+04
    1.2179813348e-02    3.4189058594e+04
    1.2189812027e-02    3.3934484375e+04
    1.2199822813e-02    3.3681042969e+04
    1.2209852226e-02    3.3428597656e+04
    1.2219903991e-02    3.3177175781e+04
    1.2229980901e-02    3.2926652344e+04
    1.2239813805e-02    3.2683820312e+04
    1.2249953113e-02    3.2435177734e+04
    1.2259850278e-02    3.2194056641e+04
    1.2269778177e-02    3.1953830078e+04
    1.2279729359e-02    3.1714798828e+04
    1.2289975770e-02    3.1470867188e+04
    1.2299958616e-02    3.1235421875e+04
    1.2309952639e-02    3.1001900391e+04
    1.2319955043e-02    3.0770382812e+04
    1.2329967692e-02    3.0540853516e+04
    1.2339994311e-02    3.0314414062e+04
    1.2349768542e-02    3.0099689453e+04
    1.2359859422e-02    2.9897619141e+04
    1.2369719334e-02    2.9747236328e+04
    1.2379918247e-02    2.9722896484e+04
    1.2389891781e-02    2.9923271484e+04
    1.2399915606e-02    3.0418724609e+04
    1.2409982271e-02    3.1089156250e+04
    1.2419793755e-02    3.1782025391e+04
    1.2429914437e-02    3.2846656250e+04
    1.2439755723e-02    3.4571343750e+04
    1.2449895963e-02    3.6555726562e+04
    1.2459752150e-02    3.7906289062e+04
    1.2469896115e-02    3.8849562500e+04
    1.2479755096e-02    3.9554050781e+04
    1.2489920482e-02    4.0145773438e+04
    1.2499819510e-02    4.0634152344e+04
    1.2509746477e-02    4.1061960938e+04
    1.2519996613e-02    4.1454562500e+04
    1.2529983185e-02    4.1800136719e+04
    1.2539997697e-02    4.2117246094e+04
    1.2549747713e-02    4.2403011719e+04
    1.2559826486e-02    4.2679562500e+04
    1.2569935992e-02    4.2940554688e+04
    1.2579771690e-02    4.3179671875e+04
    1.2589923106e-02    4.3412125000e+04
    1.2599781156e-02    4.3625804688e+04
    1.2609940022e-02    4.3835890625e+04
    1.2619803660e-02    4.4031410156e+04
    1.2629966252e-02    4.4225312500e+04
    1.2639829889e-02    4.4407886719e+04
    1.2649700977e-02    4.4586109375e+04
    1.2659895234e-02    4.4765175781e+04
    1.2669820338e-02    4.4934093750e+04
    1.2679773383e-02    4.5097628906e+04
    1.2689748779e-02    4.5254972656e+04
    1.2699740939e-02    4.5405253906e+04
    1.2709754519e-02    4.5548605469e+04
    1.2719810009e-02    4.5685968750e+04
    1.2729946524e-02    4.5819199219e+04
    1.2739899568e-02    4.5946636719e+04
    1.2749695219e-02    4.6070136719e+04
    1.2759990990e-02    4.6198808594e+04
    1.2769822031e-02    4.6320109375e+04
    1.2779830955e-02    4.6441250000e+04
    1.2789673172e-02    4.6557050781e+04
    1.2799678370e-02    4.6670636719e+04
    1.2809843756e-02    4.6781855469e+04
    1.2819807045e-02    4.6887378906e+04
    1.2829912826e-02    4.6991964844e+04
    1.2839792296e-02    4.7092968750e+04
    1.2849801220e-02    4.7194761719e+04
    1.2859937735e-02    4.7297808594e+04
    1.2869819067e-02    4.7398640625e+04
    1.2879815884e-02    4.7500378906e+04
    1.2889928184e-02    4.7600730469e+04
    1.2899759226e-02    4.7693511719e+04
    1.2909695506e-02    4.7782792969e+04
    1.2919737957e-02    4.7871753906e+04
    1.2929884717e-02    4.7963917969e+04
    1.2939723209e-02    4.8055769531e+04
    1.2949658558e-02    4.8148656250e+04
    1.2959686108e-02    4.8240480469e+04
    1.2969803996e-02    4.8330769531e+04
    1.2979589403e-02    4.8416800781e+04
    1.2989891693e-02    4.8506707031e+04
    1.2999853119e-02    4.8592519531e+04
    1.3009898365e-02    4.8678011719e+04
    1.3019582257e-02    4.8760468750e+04
    1.3029782102e-02    4.8848519531e+04
    1.3039609417e-02    4.8934152344e+04
    1.3049954548e-02    4.9024058594e+04
    1.3059905730e-02    4.9109753906e+04
    1.3069903478e-02    4.9194464844e+04
    1.3079939410e-02    4.9277855469e+04
    1.3089546934e-02    4.9356734375e+04
    1.3099647127e-02    4.9439699219e+04
    1.3109782711e-02    4.9523714844e+04
    1.3119965792e-02    4.9608980469e+04
    1.3129711151e-02    4.9691296875e+04
    1.3139955699e-02    4.9778230469e+04
    1.3149771839e-02    4.9861363281e+04
    1.3159635477e-02    4.9943703125e+04
    1.3169994578e-02    5.0028406250e+04
    1.3179923408e-02    5.0108000000e+04
    1.3189906254e-02    5.0187082031e+04
    1.3199911453e-02    5.0267019531e+04
    1.3209957629e-02    5.0349109375e+04
    1.3219539076e-02    5.0429390625e+04
    1.3229641132e-02    5.0516417969e+04
    1.3239823282e-02    5.0604988281e+04
    1.3249490410e-02    5.0689066406e+04
    1.3259722851e-02    5.0776300781e+04
    1.3269995339e-02    5.0861269531e+04
    1.3279767707e-02    5.0939199219e+04
    1.3289611787e-02    5.1015511719e+04
    1.3299955986e-02    5.1094441406e+04
    1.3309849426e-02    5.1170191406e+04
    1.3319787569e-02    5.1247402344e+04
    1.3329711743e-02    5.1326769531e+04
    1.3339747675e-02    5.1408894531e+04
    1.3349762186e-02    5.1492957031e+04
    1.3359756209e-02    5.1578933594e+04
    1.3369826600e-02    5.1666269531e+04
    1.3379964046e-02    5.1755332031e+04
    1.3389593922e-02    5.1840589844e+04
    1.3399759308e-02    5.1929933594e+04
    1.3409961015e-02    5.2019785156e+04
    1.3419612311e-02    5.2104222656e+04
    1.3429836370e-02    5.2191667969e+04
    1.3439628296e-02    5.2273011719e+04
    1.3449972495e-02    5.2357390625e+04
    1.3459751382e-02    5.2437035156e+04
    1.3469613157e-02    5.2517972656e+04
    1.3479481451e-02    5.2598238281e+04
    1.3489943929e-02    5.2683386719e+04
    1.3499929570e-02    5.2766390625e+04
    1.3509853743e-02    5.2850917969e+04
    1.3519787230e-02    5.2937066406e+04
    1.3529763557e-02    5.3022988281e+04
    1.3539737090e-02    5.3107640625e+04
    1.3549800031e-02    5.3193691406e+04
    1.3559869491e-02    5.3281667969e+04
    1.3569966890e-02    5.3369984375e+04
    1.3579488732e-02    5.3452343750e+04
    1.3589665294e-02    5.3540031250e+04
    1.3599832542e-02    5.3628089844e+04
    1.3609932736e-02    5.3716363281e+04
    1.3619635254e-02    5.3801000000e+04
    1.3629772700e-02    5.3889785156e+04
    1.3639523648e-02    5.3975371094e+04
    1.3649710454e-02    5.4065933594e+04
    1.3659978285e-02    5.4157863281e+04
    1.3669728301e-02    5.4244480469e+04
    1.3679563068e-02    5.4332207031e+04
    1.3689829037e-02    5.4424238281e+04
    1.3699635863e-02    5.4512378906e+04
    1.3709972613e-02    5.4605902344e+04
    1.3719703071e-02    5.4694355469e+04
    1.3729928061e-02    5.4787394531e+04
    1.3739521615e-02    5.4875000000e+04
    1.3749499805e-02    5.4966640625e+04
    1.3759782538e-02    5.5061449219e+04
    1.3769792393e-02    5.5154093750e+04
    1.3779989444e-02    5.5248734375e+04
    1.3789879158e-02    5.5340625000e+04
    1.3799916022e-02    5.5433953125e+04
    1.3809635304e-02    5.5524355469e+04
    1.3819885440e-02    5.5619667969e+04
    1.3829776086e-02    5.5712121094e+04
    1.3839708641e-02    5.5805925781e+04
    1.3849645853e-02    5.5900750000e+04
    1.3859911822e-02    5.5999191406e+04
    1.3869733550e-02    5.6093093750e+04
    1.3879773207e-02    5.6188644531e+04
    1.3889939524e-02    5.6285292969e+04
    1.3899846002e-02    5.6379906250e+04
    1.3909986243e-02    5.6477652344e+04
    1.3919940218e-02    5.6574281250e+04
    1.3929813169e-02    5.6670574219e+04
    1.3939869590e-02    5.6769515625e+04
    1.3949923217e-02    5.6869906250e+04
    1.3959850185e-02    5.6970593750e+04
    1.3969942927e-02    5.7074062500e+04
    1.3979976065e-02    5.7174722656e+04
    1.3989887200e-02    5.7273480469e+04
    1.3999875635e-02    5.7372191406e+04
    1.4009940438e-02    5.7472761719e+04
    1.4019974507e-02    5.7575640625e+04
    1.4029948972e-02    5.7680171875e+04
    1.4039912261e-02    5.7784949219e+04
    1.4049955644e-02    5.7888527344e+04
    1.4059885405e-02    5.7987718750e+04
    1.4069894329e-02    5.8084988281e+04
    1.4079946093e-02    5.8181863281e+04
    1.4089986682e-02    5.8280128906e+04
    1.4099978842e-02    5.8381214844e+04
    1.4109879732e-02    5.8485683594e+04
    1.4119896106e-02    5.8595042969e+04
    1.4129994437e-02    5.8706957031e+04
    1.4139948413e-02    5.8817113281e+04
    1.4149957336e-02    5.8927203125e+04
    1.4159806073e-02    5.9035292969e+04
    1.4169930480e-02    5.9146808594e+04
    1.4179883525e-02    5.9257332031e+04
    1.4189872891e-02    5.9369355469e+04
    1.4199899510e-02    5.9482859375e+04
    1.4209970832e-02    5.9597480469e+04
    1.4219843782e-02    5.9710175781e+04
    1.4229977503e-02    5.9826011719e+04
    1.4239911921e-02    5.9939558594e+04
    1.4249883592e-02    6.0053511719e+04
    1.4259863645e-02    6.0167718750e+04
    1.4269890264e-02    6.0282613281e+04
    1.4279920608e-02    6.0397765625e+04
    1.4289995655e-02    6.0514003906e+04
    1.4299841598e-02    6.0628238281e+04
    1.4309957623e-02    6.0745890625e+04
    1.4319835231e-02    6.0860863281e+04
    1.4329995960e-02    6.0979035156e+04
    1.4339926653e-02    6.1094605469e+04
    1.4349864796e-02    6.1210566406e+04
    1.4359841123e-02    6.1327875000e+04
    1.4369826764e-02    6.1446308594e+04
    1.4379836619e-02    6.1565996094e+04
    1.4389855787e-02    6.1686593750e+04
    1.4399921522e-02    6.1808324219e+04
    1.4409971423e-02    6.1930464844e+04
    1.4419826679e-02    6.2050910156e+04
    1.4429942705e-02    6.2175136719e+04
    1.4439820312e-02    6.2296718750e+04
    1.4449957758e-02    6.2421417969e+04
    1.4459894970e-02    6.2543449219e+04
    1.4469829388e-02    6.2665609375e+04
    1.4479773119e-02    6.2788894531e+04
    1.4489996247e-02    6.2918171875e+04
    1.4499976300e-02    6.3048359375e+04
    1.4509964734e-02    6.3184046875e+04
    1.4519995078e-02    6.3325824219e+04
    1.4529783279e-02    6.3467082031e+04
    1.4539814554e-02    6.3610046875e+04
    1.4549880289e-02    6.3746839844e+04
    1.4559959993e-02    6.3874921875e+04
    1.4569782652e-02    6.3993511719e+04
    1.4579885639e-02    6.4115050781e+04
    1.4589766972e-02    6.4238921875e+04
    1.4599870890e-02    6.4372652344e+04
    1.4609993435e-02    6.4511199219e+04
    1.4619909227e-02    6.4646406250e+04
    1.4629817568e-02    6.4777800781e+04
    1.4639974572e-02    6.4909449219e+04
    1.4649918303e-02    6.5038605469e+04
    1.4659861103e-02    6.5170355469e+04
    1.4669817872e-02    6.5304703125e+04
    1.4679796062e-02    6.5440628906e+04
    1.4689775184e-02    6.5577046875e+04
    1.4699997380e-02    6.5717234375e+04
    1.4709764160e-02    6.5851601562e+04
    1.4719783328e-02    6.5990039062e+04
    1.4729789458e-02    6.6129210938e+04
    1.4739814214e-02    6.6270179688e+04
    1.4749864116e-02    6.6414023438e+04
    1.4759914950e-02    6.6560835938e+04
    1.4769968577e-02    6.6710453125e+04
    1.4779794961e-02    6.6858609375e+04
    1.4789872803e-02    6.7012195312e+04
    1.4799965546e-02    6.7167570312e+04
    1.4809821732e-02    6.7321273438e+04
    1.4819927514e-02    6.7481687500e+04
    1.4829788357e-02    6.7641515625e+04
    1.4839919284e-02    6.7808945312e+04
    1.4849809930e-02    6.7975015625e+04
    1.4859943651e-02    6.8146921875e+04
    1.4869841747e-02    6.8316367188e+04
    1.4879756607e-02    6.8488203125e+04
    1.4889924787e-02    6.8667554688e+04
    1.4899845235e-02    6.8846031250e+04
    1.4909772202e-02    6.9027531250e+04
    1.4919961803e-02    6.9216156250e+04
    1.4929912984e-02    6.9402195312e+04
    1.4939870685e-02    6.9590351562e+04
    1.4949828386e-02    6.9781367188e+04
    1.4959792607e-02    6.9975851562e+04
    1.4969773591e-02    7.0173710938e+04
    1.4979759231e-02    7.0373890625e+04
    1.4989996329e-02    7.0580929688e+04
    1.4999989420e-02    7.0785335938e+04
    1.5009992756e-02    7.0993218750e+04
    1.5019758604e-02    7.1199601562e+04
    1.5029772185e-02    7.1414546875e+04
    1.5039788559e-02    7.1632429688e+04
    1.5049817972e-02    7.1853164062e+04
    1.5059856698e-02    7.2076929688e+04
    1.5069900081e-02    7.2303914062e+04
    1.5079940669e-02    7.2533992188e+04
    1.5089988708e-02    7.2767179688e+04
    1.5099800192e-02    7.2997937500e+04
    1.5109868720e-02    7.3238226562e+04
    1.5119938180e-02    7.3482320312e+04
    1.5129752457e-02    7.3723757812e+04
    1.5139834024e-02    7.3974992188e+04
    1.5149925835e-02    7.4229921875e+04
    1.5159763396e-02    7.4482156250e+04
    1.5169856139e-02    7.4745171875e+04
    1.5179948881e-02    7.5012593750e+04
    1.5189806931e-02    7.5277593750e+04
    1.5199922025e-02    7.5553531250e+04
    1.5209781937e-02    7.5827007812e+04
    1.5219902620e-02    7.6112664062e+04
    1.5229776502e-02    7.6396039062e+04
    1.5239911154e-02    7.6691882812e+04
    1.5249790624e-02    7.6985390625e+04
    1.5259921551e-02    7.7291929688e+04
    1.5269812196e-02    7.7596882812e+04
    1.5279962681e-02    7.7915859375e+04
    1.5289865434e-02    7.8233367188e+04
    1.5299760737e-02    7.8557187500e+04
    1.5309912153e-02    7.8896414062e+04
    1.5319823287e-02    7.9235085938e+04
    1.5329993330e-02    7.9590617188e+04
    1.5339911915e-02    7.9945734375e+04
    1.5349826775e-02    8.0309523438e+04
    1.5359748155e-02    8.0683031250e+04
    1.5369932167e-02    8.1077164062e+04
    1.5379860066e-02    8.1472585938e+04
    1.5389790758e-02    8.1880007812e+04
    1.5399974771e-02    8.2311585938e+04
    1.5409908257e-02    8.2747351562e+04
    1.5419851989e-02    8.3199820312e+04
    1.5429798514e-02    8.3680679688e+04
    1.5439750627e-02    1.0149150781e+05
    1.5449960716e-02    1.1430185156e+05
    1.5459915623e-02    1.1371421094e+05
    1.5469869599e-02    1.1324840625e+05
    1.5479822643e-02    1.1279366406e+05
    1.5489775687e-02    1.1234561719e+05
    1.5499983914e-02    1.1190137500e+05
    1.5509936959e-02    1.1148003906e+05
    1.5519892797e-02    1.1107068750e+05
    1.5529849567e-02    1.1067233594e+05
    1.5539807267e-02    1.1028481250e+05
    1.5549766831e-02    1.0990766406e+05
    1.5559983440e-02    1.0953100000e+05
    1.5569944866e-02    1.0917328906e+05
    1.5579906292e-02    1.0882450781e+05
    1.5589866787e-02    1.0848378906e+05
    1.5599827282e-02    1.0815110156e+05
    1.5609787777e-02    1.0782638281e+05
    1.5619748272e-02    1.0750914844e+05
    1.5629963949e-02    1.0719241406e+05
    1.5639925376e-02    1.0689134375e+05
    1.5649884939e-02    1.0659800000e+05
    1.5659846365e-02    1.0631185156e+05
    1.5669807792e-02    1.0603271094e+05
    1.5679771081e-02    1.0576018750e+05
    1.5689987689e-02    1.0548700000e+05
    1.5699950978e-02    1.0522693750e+05
    1.5709914267e-02    1.0497233594e+05
    1.5719877556e-02    1.0472378125e+05
    1.5729842708e-02    1.0448149219e+05
    1.5739807859e-02    1.0424250000e+05
    1.5749773011e-02    1.0401133594e+05
    1.5759995207e-02    1.0377914844e+05
    1.5769962221e-02    1.0355750781e+05
    1.5779931098e-02    1.0334069531e+05
    1.5789898112e-02    1.0312866406e+05
    1.5799866989e-02    1.0292190625e+05
    1.5809835866e-02    1.0271947656e+05
    1.5819806606e-02    1.0252138281e+05
    1.5829775482e-02    1.0232739844e+05
    1.5839746222e-02    1.0213691406e+05
    1.5849972144e-02    1.0194528906e+05
    1.5859942883e-02    1.0176296875e+05
    1.5869915485e-02    1.0158514844e+05
    1.5879888088e-02    1.0141119531e+05
    1.5889860690e-02    1.0124069531e+05
    1.5899833292e-02    1.0107310156e+05
    1.5909807757e-02    1.0090910156e+05
    1.5919780359e-02    1.0074871094e+05
    1.5929752961e-02    1.0059253906e+05
    1.5939982608e-02    1.0043657031e+05
    1.5949955210e-02    1.0028808594e+05
    1.5959929675e-02    1.0014278906e+05
    1.5969902277e-02    1.0000010156e+05
    1.5979876742e-02    9.9860343750e+04
    1.5989853069e-02    9.9721656250e+04
    1.5999833122e-02    9.9586968750e+04
    1.6009818763e-02    9.9454750000e+04
    1.6019806266e-02    9.9325343750e+04
    1.6029791906e-02    9.9198851562e+04
    1.6039779410e-02    9.9075320312e+04
    1.6049763188e-02    9.8954898438e+04
    1.6059746966e-02    9.8837242188e+04
    1.6069987789e-02    9.8719445312e+04
    1.6079969704e-02    9.8606835938e+04
    1.6089955345e-02    9.8496585938e+04
    1.6099942848e-02    9.8388773438e+04
    1.6109934077e-02    9.8283273438e+04
    1.6119923443e-02    9.8180398438e+04
    1.6129912809e-02    9.8079929688e+04
    1.6139902174e-02    9.7981851562e+04
    1.6149889678e-02    9.7885664062e+04
    1.6159879044e-02    9.7791070312e+04
    1.6169870272e-02    9.7698039062e+04
    1.6179861501e-02    9.7606906250e+04
    1.6189852729e-02    9.7518250000e+04
    1.6199843958e-02    9.7432312500e+04
    1.6209835187e-02    9.7349062500e+04
    1.6219826415e-02    9.7267867188e+04
    1.6229817644e-02    9.7188867188e+04
    1.6239808872e-02    9.7111593750e+04
    1.6249800101e-02    9.7035929688e+04
    1.6259791330e-02    9.6963148438e+04
    1.6269782558e-02    9.6892093750e+04
    1.6279775649e-02    9.6822929688e+04
    1.6289766878e-02    9.6755406250e+04
    1.6299758106e-02    9.6689164062e+04
    1.6309751198e-02    9.6624210938e+04
    1.6319999471e-02    9.6559257812e+04
    1.6329990700e-02    9.6498164062e+04
    1.6339981928e-02    9.6439601562e+04
    1.6349973157e-02    9.6383414062e+04
    1.6359966248e-02    9.6328875000e+04
    1.6369959339e-02    9.6275250000e+04
    1.6379950568e-02    9.6222882812e+04
    1.6389943659e-02    9.6171843750e+04
    1.6399934888e-02    9.6122914062e+04
    1.6409927979e-02    9.6075804688e+04
    1.6419919208e-02    9.6030617188e+04
    1.6429912299e-02    9.5986945312e+04
    1.6439905390e-02    9.5944617188e+04
    1.6449898481e-02    9.5903867188e+04
    1.6459891573e-02    9.5864382812e+04
    1.6469882801e-02    9.5826898438e+04
    1.6479875892e-02    9.5790898438e+04
    1.6489868984e-02    9.5756507812e+04
    1.6499862075e-02    9.5723062500e+04
    1.6509855166e-02    9.5692156250e+04
    1.6519848257e-02    9.5661429688e+04
    1.6529839486e-02    9.5632343750e+04
    1.6539832577e-02    9.5605398438e+04
    1.6549825668e-02    9.5579710938e+04
    1.6559818760e-02    9.5555335938e+04
    1.6569811851e-02    9.5532210938e+04
    1.6579806805e-02    9.5510148438e+04
    1.6589799896e-02    9.5489468750e+04
    1.6599792987e-02    9.5470179688e+04
    1.6609786078e-02    9.5452429688e+04
    1.6619779170e-02    9.5436156250e+04
    1.6629774123e-02    9.5420968750e+04
    1.6639767215e-02    9.5406812500e+04
    1.6649760306e-02    9.5393875000e+04
    1.6659753397e-02    9.5382195312e+04
    1.6669746488e-02    9.5371945312e+04
    1.6679996625e-02    9.5362726562e+04
    1.6689989716e-02    9.5355085938e+04
    1.6699984670e-02    9.5348812500e+04
    1.6709977761e-02    9.5343867188e+04
    1.6719970852e-02    9.5340257812e+04
    1.6729965806e-02    9.5338000000e+04
    1.6739958897e-02    9.5337273438e+04
    1.6749953851e-02    9.5337539062e+04
    1.6759946942e-02    9.5338312500e+04
    1.6769940034e-02    9.5339398438e+04
    1.6779934987e-02    9.5342398438e+04
    1.6789928079e-02    9.5345812500e+04
    1.6799923033e-02    9.5349960938e+04
    1.6809916124e-02    9.5356062500e+04
    1.6819911078e-02    9.5363437500e+04
    1.6829904169e-02    9.5372164062e+04
    1.6839899123e-02    9.5381804688e+04
    1.6849894077e-02    9.5392570312e+04
    1.6859887168e-02    9.5404226562e+04
    1.6869882122e-02    9.5417117188e+04
    1.6879877076e-02    9.5430789062e+04
    1.6889870167e-02    9.5445460938e+04
    1.6899865121e-02    9.5460648438e+04
    1.6909860075e-02    9.5476562500e+04
    1.6919855028e-02    9.5493289062e+04
    1.6929848120e-02    9.5511226562e+04
    1.6939843073e-02    9.5531093750e+04
    1.6949838027e-02    9.5552773438e+04
    1.6959832981e-02    9.5575664062e+04
    1.6969827935e-02    9.5599093750e+04
    1.6979822889e-02    9.5622375000e+04
    1.6989817843e-02    9.5644898438e+04
    1.6999812797e-02    9.5666929688e+04
    1.7009807751e-02    9.5689320312e+04
    1.7019804567e-02    9.5713351562e+04
    1.7029799521e-02    9.5739710938e+04
    1.7039794475e-02    9.5768937500e+04
    1.7049789429e-02    9.5800914062e+04
    1.7059784383e-02    9.5834476562e+04
    1.7069781199e-02    9.5868460938e+04
    1.7079776153e-02    9.5901695312e+04
    1.7089772969e-02    9.5933343750e+04
    1.7099767923e-02    9.5963218750e+04
    1.7109764740e-02    9.5991882812e+04
    1.7119761556e-02    9.6020351562e+04
    1.7129758373e-02    9.6049656250e+04
    1.7139755189e-02    9.6080476562e+04
    1.7149752006e-02    9.6113000000e+04
    1.7159746960e-02    9.6146937500e+04
    1.7169743776e-02    9.6181804688e+04
    1.7179997638e-02    9.6218093750e+04
    1.7189994454e-02    9.6253648438e+04
    1.7199991271e-02    9.6289187500e+04
    1.7209988087e-02    9.6324664062e+04
    1.7219984904e-02    9.6360210938e+04
    1.7229983583e-02    9.6395875000e+04
    1.7239982262e-02    9.6431648438e+04
    1.7249979079e-02    9.6467101562e+04
    1.7259977758e-02    9.6502007812e+04
    1.7269976437e-02    9.6536179688e+04
    1.7279973254e-02    9.6569617188e+04
    1.7289971933e-02    9.6602164062e+04
    1.7299970612e-02    9.6634023438e+04
    1.7309969291e-02    9.6665187500e+04
    1.7319967970e-02    9.6695820312e+04
    1.7329966649e-02    9.6726093750e+04
    1.7339967191e-02    9.6756179688e+04
    1.7349965870e-02    9.6786257812e+04
    1.7359964550e-02    9.6816273438e+04
    1.7369965091e-02    9.6845882812e+04
    1.7379963771e-02    9.6874804688e+04
    1.7389964312e-02    9.6903039062e+04
    1.7399962991e-02    9.6930679688e+04
    1.7409963533e-02    9.6957875000e+04
    1.7419964075e-02    9.6984882812e+04
    1.7429962754e-02    9.7011851562e+04
    1.7439963296e-02    9.7039007812e+04
    1.7449963838e-02    9.7066750000e+04
    1.7459964380e-02    9.7095312500e+04
    1.7469964921e-02    9.7124812500e+04
    1.7479965463e-02    9.7155382812e+04
    1.7489966005e-02    9.7186773438e+04
    1.7499968410e-02    9.7218226562e+04
    1.7509970814e-02    9.7247992188e+04
    1.7519971356e-02    9.7274039062e+04
    1.7529973760e-02    9.7294250000e+04
    1.7539974302e-02    9.7307875000e+04
    1.7549976707e-02    9.7314929688e+04
    1.7559977248e-02    9.7317468750e+04
    1.7569979653e-02    9.7320914062e+04
    1.7579982057e-02    9.7330226562e+04
    1.7589984462e-02    9.7345898438e+04
    1.7599986866e-02    9.7366781250e+04
    1.7609989271e-02    9.7390062500e+04
    1.7619993538e-02    9.7412710938e+04
    1.7629995942e-02    9.7432335938e+04
    1.7639998347e-02    9.7448320312e+04
    1.7649745569e-02    9.7461718750e+04
    1.7659747973e-02    9.7475906250e+04
    1.7669752240e-02    9.7492531250e+04
    1.7679754645e-02    9.7511382812e+04
    1.7689758912e-02    9.7530875000e+04
    1.7699763179e-02    9.7549648438e+04
    1.7709765583e-02    9.7567101562e+04
    1.7719769850e-02    9.7583351562e+04
    1.7729774117e-02    9.7598960938e+04
    1.7739778385e-02    9.7614570312e+04
    1.7749782652e-02    9.7630585938e+04
    1.7759786919e-02    9.7647132812e+04
    1.7769791186e-02    9.7664242188e+04
    1.7779797316e-02    9.7681835938e+04
    1.7789801583e-02    9.7699625000e+04
    1.7799805850e-02    9.7716968750e+04
    1.7809811980e-02    9.7733726562e+04
    1.7819816247e-02    9.7749976562e+04
    1.7829820514e-02    9.7766085938e+04
    1.7839826643e-02    9.7782460938e+04
    1.7849832773e-02    9.7799414062e+04
    1.7859837040e-02    9.7816945312e+04
    1.7869843170e-02    9.7834750000e+04
    1.7879849300e-02    9.7852460938e+04
    1.7889855430e-02    9.7869773438e+04
    1.7899861559e-02    9.7886601562e+04
    1.7909867689e-02    9.7903218750e+04
    1.7919873819e-02    9.7920070312e+04
    1.7929879948e-02    9.7937398438e+04
    1.7939886078e-02    9.7955093750e+04
    1.7949894071e-02    9.7972898438e+04
    1.7959900200e-02    9.7990437500e+04
    1.7969906330e-02    9.8007617188e+04
    1.7979914322e-02    9.8024656250e+04
    1.7989920452e-02    9.8041851562e+04
    1.7999928445e-02    9.8059445312e+04
    1.8009936437e-02    9.8077312500e+04
    1.8019942567e-02    9.8095101562e+04
    1.8029950559e-02    9.8112539062e+04
    1.8039958552e-02    9.8129757812e+04
    1.8049966544e-02    9.8147101562e+04
    1.8059974536e-02    9.8164945312e+04
    1.8069982529e-02    9.8183351562e+04
    1.8079990521e-02    9.8202023438e+04
    1.8089998513e-02    9.8220476562e+04
    1.8099751323e-02    9.8238023438e+04
    1.8109759316e-02    9.8255632812e+04
    1.8119769171e-02    9.8273101562e+04
    1.8129777163e-02    9.8290710938e+04
    1.8139787018e-02    9.8308570312e+04
    1.8149795011e-02    9.8326625000e+04
    1.8159804866e-02    9.8344804688e+04
    1.8169812858e-02    9.8363070312e+04
    1.8179822713e-02    9.8381289062e+04
    1.8189832568e-02    9.8399398438e+04
    1.8199842423e-02    9.8417351562e+04
    1.8209852278e-02    9.8435226562e+04
    1.8219862133e-02    9.8453101562e+04
    1.8229871988e-02    9.8471156250e+04
    1.8239881843e-02    9.8489398438e+04
    1.8249891698e-02    9.8507664062e+04
    1.8259901553e-02    9.8525843750e+04
    1.8269911408e-02    9.8543851562e+04
    1.8279921263e-02    9.8561835938e+04
    1.8289932981e-02    9.8579882812e+04
    1.8299942836e-02    9.8598070312e+04
    1.8309954554e-02    9.8616312500e+04
    1.8319964409e-02    9.8634531250e+04
    1.8329976127e-02    9.8652726562e+04
    1.8339985982e-02    9.8670875000e+04
    1.8349997699e-02    9.8688960938e+04
    1.8359752372e-02    9.8706554688e+04
    1.8369762227e-02    9.8724476562e+04
    1.8379773945e-02    9.8742335938e+04
    1.8389785662e-02    9.8760179688e+04
    1.8399797380e-02    9.8778101562e+04
    1.8409809098e-02    9.8796093750e+04
    1.8419820815e-02    9.8814085938e+04
    1.8429832533e-02    9.8831960938e+04
    1.8439844251e-02    9.8849726562e+04
    1.8449855968e-02    9.8867445312e+04
    1.8459867686e-02    9.8885164062e+04
    1.8469881266e-02    9.8902906250e+04
    1.8479892984e-02    9.8920687500e+04
    1.8489904702e-02    9.8938476562e+04
    1.8499918282e-02    9.8956273438e+04
    1.8509930000e-02    9.8974054688e+04
    1.8519941717e-02    9.8991773438e+04
    1.8529955298e-02    9.9009335938e+04
    1.8539968878e-02    9.9026710938e+04
    1.8549980596e-02    9.9043960938e+04
    1.8559994176e-02    9.9061187500e+04
    1.8569750711e-02    9.9078062500e+04
    1.8579764292e-02    9.9095539062e+04
    1.8589776009e-02    9.9113117188e+04
    1.8599789590e-02    9.9130679688e+04
    1.8609803170e-02    9.9148085938e+04
    1.8619816750e-02    9.9165226562e+04
    1.8629830331e-02    9.9182148438e+04
    1.8639843911e-02    9.9198781250e+04
    1.8649857491e-02    9.9215125000e+04
    1.8659871072e-02    9.9231226562e+04
    1.8669884652e-02    9.9247218750e+04
    1.8679898232e-02    9.9263304688e+04
    1.8689911813e-02    9.9279742188e+04
    1.8699927256e-02    9.9296570312e+04
    1.8709940836e-02    9.9313648438e+04
    1.8719954416e-02    9.9330726562e+04
    1.8729969859e-02    9.9347632812e+04
    1.8739983439e-02    9.9364210938e+04
    1.8749998882e-02    9.9380375000e+04
    1.8759755418e-02    9.9395757812e+04
    1.8769770861e-02    9.9411273438e+04
    1.8779784441e-02    9.9426664062e+04
    1.8789799884e-02    9.9442085938e+04
    1.8799815327e-02    9.9457554688e+04
    1.8809828907e-02    9.9473062500e+04
    1.8819844350e-02    9.9488500000e+04
    1.8829859793e-02    9.9503773438e+04
    1.8839875236e-02    9.9518773438e+04
    1.8849890679e-02    9.9533500000e+04
    1.8859904259e-02    9.9547976562e+04
    1.8869919702e-02    9.9562195312e+04
    1.8879935145e-02    9.9576125000e+04
    1.8889950588e-02    9.9589835938e+04
    1.8899966031e-02    9.9603476562e+04
    1.8909981474e-02    9.9617289062e+04
    1.8919996917e-02    9.9631351562e+04
    1.8929757178e-02    9.9645210938e+04
    1.8939772621e-02    9.9659382812e+04
    1.8949788064e-02    9.9673304688e+04
    1.8959803507e-02    9.9686945312e+04
    1.8969818950e-02    9.9700476562e+04
    1.8979836255e-02    9.9714031250e+04
    1.8989851698e-02    9.9727523438e+04
    1.8999867141e-02    9.9740718750e+04
    1.9009884447e-02    9.9753406250e+04
    1.9019899890e-02    9.9765523438e+04
    1.9029917195e-02    9.9777195312e+04
    1.9039932638e-02    9.9788687500e+04
    1.9049949944e-02    9.9800289062e+04
    1.9059965387e-02    9.9812210938e+04
    1.9069982693e-02    9.9824445312e+04
    1.9079998136e-02    9.9836843750e+04
    1.9089758396e-02    9.9848851562e+04
    1.9099775702e-02    9.9860835938e+04
    1.9109791145e-02    9.9872281250e+04
    1.9119808450e-02    9.9883093750e+04
    1.9129825756e-02    9.9893226562e+04
    1.9139841199e-02    9.9902804688e+04
    1.9149858505e-02    9.9912062500e+04
    1.9159875810e-02    9.9921289062e+04
    1.9169893116e-02    9.9930625000e+04
    1.9179908559e-02    9.9940179688e+04
    1.9189925864e-02    9.9950007812e+04
    1.9199943170e-02    9.9960039062e+04
    1.9209960476e-02    9.9970156250e+04
    1.9219977781e-02    9.9980226562e+04
    1.9229995087e-02    9.9990156250e+04
    1.9239755347e-02    9.9999585938e+04
    1.9249772653e-02    1.0000889844e+05
    1.9259789959e-02    1.0001781250e+05
    1.9269807264e-02    1.0002627344e+05
    1.9279824570e-02    1.0003428906e+05
    1.9289841875e-02    1.0004197656e+05
    1.9299859181e-02    1.0004935156e+05
    1.9309876487e-02    1.0005641406e+05
    1.9319893792e-02    1.0006319531e+05
    1.9329911098e-02    1.0006964844e+05
    1.9339928403e-02    1.0007578906e+05
    1.9349945709e-02    1.0008166406e+05
    1.9359964877e-02    1.0008734375e+05
    1.9369982183e-02    1.0009288281e+05
    1.9379999489e-02    1.0009835156e+05
    1.9389759749e-02    1.0010362500e+05
    1.9399777055e-02    1.0010897656e+05
    1.9409794360e-02    1.0011433594e+05
    1.9419813529e-02    1.0011971094e+05
    1.9429830834e-02    1.0012510156e+05
    1.9439848140e-02    1.0013046094e+05
[...]
    1.1513978988e-01    1.0123328906e+05
    1.1514986306e-01    1.0123328906e+05
    1.1515993625e-01    1.0123328906e+05
    1.1516971886e-01    1.0123328906e+05
    1.1517979205e-01    1.0123328906e+05
    1.1518986523e-01    1.0123328906e+05
    1.1519993842e-01    1.0123328906e+05
    1.1520971358e-01    1.0123327344e+05
    1.1521978676e-01    1.0123327344e+05
    1.1522985995e-01    1.0123325000e+05
    1.1523993313e-01    1.0123322656e+05
    1.1524971575e-01    1.0123321094e+05
    1.1525978893e-01    1.0123321094e+05
    1.1526986212e-01    1.0123318750e+05
    1.1527993530e-01    1.0123317969e+05
    1.1528971046e-01    1.0123317969e+05
    1.1529978365e-01    1.0123316406e+05
    1.1530985683e-01    1.0123316406e+05
    1.1531993747e-01    1.0123316406e+05
    1.1532971263e-01    1.0123314844e+05
    1.1533978581e-01    1.0123313281e+05
    1.1534985900e-01    1.0123311719e+05
    1.1535993218e-01    1.0123309375e+05
    1.1536970735e-01    1.0123307031e+05
    1.1537978053e-01    1.0123303906e+05
    1.1538986117e-01    1.0123302344e+05
    1.1539993435e-01    1.0123300000e+05
    1.1540970951e-01    1.0123297656e+05
    1.1541978270e-01    1.0123296094e+05
    1.1542985588e-01    1.0123296094e+05
    1.1543992907e-01    1.0123296094e+05
    1.1544971168e-01    1.0123296094e+05
    1.1545978487e-01    1.0123296094e+05
    1.1546985805e-01    1.0123296094e+05
    1.1547993124e-01    1.0123296094e+05
    1.1548970640e-01    1.0123294531e+05
    1.1549977958e-01    1.0123294531e+05
    1.1550985277e-01    1.0123293750e+05
    1.1551992595e-01    1.0123293750e+05
    1.1552970856e-01    1.0123292969e+05
    1.1553978175e-01    1.0123292969e+05
    1.1554985493e-01    1.0123291406e+05
    1.1555992812e-01    1.0123291406e+05
    1.1556970328e-01    1.0123291406e+05
    1.1557977647e-01    1.0123290625e+05
    1.1558984965e-01    1.0123289844e+05
    1.1559992284e-01    1.0123289844e+05
    1.1561000347e-01    1.0123288281e+05
    1.1561977863e-01    1.0123287500e+05
    1.1562985182e-01    1.0123285156e+05
    1.1563992500e-01    1.0123284375e+05
    1.1564999819e-01    1.0123283594e+05
    1.1565977335e-01    1.0123280469e+05
    1.1566984653e-01    1.0123278906e+05
    1.1567992717e-01    1.0123277344e+05
    1.1569000036e-01    1.0123275781e+05
    1.1569977552e-01    1.0123275000e+05
    1.1570984870e-01    1.0123275000e+05
    1.1571992189e-01    1.0123275781e+05
    1.1572999507e-01    1.0123275781e+05
    1.1573977768e-01    1.0123277344e+05
    1.1574985087e-01    1.0123277344e+05
    1.1575992405e-01    1.0123277344e+05
    1.1576999724e-01    1.0123275781e+05
    1.1577977240e-01    1.0123275781e+05
    1.1578984559e-01    1.0123274219e+05
    1.1579991877e-01    1.0123272656e+05
    1.1580999196e-01    1.0123272656e+05
    1.1581977457e-01    1.0123271094e+05
    1.1582984775e-01    1.0123271094e+05
    1.1583992094e-01    1.0123269531e+05
    1.1584999412e-01    1.0123268750e+05
    1.1585976928e-01    1.0123267969e+05
    1.1586984247e-01    1.0123266406e+05
    1.1587991565e-01    1.0123266406e+05
    1.1588998884e-01    1.0123265625e+05
    1.1589977145e-01    1.0123264844e+05
    1.1590984464e-01    1.0123264844e+05
    1.1591991782e-01    1.0123262500e+05
    1.1592999101e-01    1.0123261719e+05
    1.1593976617e-01    1.0123260156e+05
    1.1594983935e-01    1.0123260156e+05
    1.1595991254e-01    1.0123258594e+05
    1.1596999317e-01    1.0123258594e+05
    1.1597976834e-01    1.0123257031e+05
    1.1598984152e-01    1.0123256250e+05
    1.1599991471e-01    1.0123255469e+05
    1.1600998789e-01    1.0123253906e+05
    1.1601976305e-01    1.0123253906e+05
    1.1602984369e-01    1.0123253125e+05
    1.1603991687e-01    1.0123253125e+05
    1.1604999006e-01    1.0123252344e+05
    1.1605976522e-01    1.0123252344e+05
    1.1606983840e-01    1.0123252344e+05
    1.1607991159e-01    1.0123252344e+05
    1.1608998477e-01    1.0123252344e+05
    1.1609976739e-01    1.0123250781e+05
    1.1610984057e-01    1.0123250000e+05
    1.1611991376e-01    1.0123247656e+05
    1.1612998694e-01    1.0123247656e+05
    1.1613976210e-01    1.0123246875e+05
    1.1614983529e-01    1.0123246094e+05
    1.1615990847e-01    1.0123246094e+05
    1.1616998166e-01    1.0123243750e+05
    1.1617976427e-01    1.0123242969e+05
    1.1618983746e-01    1.0123241406e+05
    1.1619991064e-01    1.0123240625e+05
    1.1620998383e-01    1.0123239844e+05
    1.1621975899e-01    1.0123238281e+05
    1.1622983217e-01    1.0123237500e+05
    1.1623990536e-01    1.0123235156e+05
    1.1624997854e-01    1.0123235156e+05
    1.1625976115e-01    1.0123235156e+05
    1.1626983434e-01    1.0123234375e+05
    1.1627990752e-01    1.0123234375e+05
    1.1628998071e-01    1.0123234375e+05
    1.1629975587e-01    1.0123234375e+05
    1.1630982906e-01    1.0123233594e+05
    1.1631990969e-01    1.0123233594e+05
    1.1632998288e-01    1.0123233594e+05
    1.1633975804e-01    1.0123233594e+05
    1.1634983122e-01    1.0123232031e+05
    1.1635990441e-01    1.0123232031e+05
    1.1636997759e-01    1.0123231250e+05
    1.1637975276e-01    1.0123228906e+05
    1.1638983339e-01    1.0123228906e+05
    1.1639990658e-01    1.0123228125e+05
    1.1640997976e-01    1.0123227344e+05
    1.1641975492e-01    1.0123225781e+05
    1.1642982811e-01    1.0123224219e+05
    1.1643990129e-01    1.0123222656e+05
    1.1644997448e-01    1.0123221875e+05
    1.1645975709e-01    1.0123221094e+05
    1.1646983027e-01    1.0123219531e+05
    1.1647990346e-01    1.0123218750e+05
    1.1648997664e-01    1.0123217969e+05
    1.1649975181e-01    1.0123216406e+05
    1.1650982499e-01    1.0123215625e+05
    1.1651989818e-01    1.0123214844e+05
    1.1652997136e-01    1.0123214844e+05
    1.1653975397e-01    1.0123213281e+05
    1.1654982716e-01    1.0123212500e+05
    1.1655990034e-01    1.0123211719e+05
    1.1656997353e-01    1.0123210156e+05
    1.1657974869e-01    1.0123210156e+05
    1.1658982188e-01    1.0123209375e+05
    1.1659989506e-01    1.0123208594e+05
    1.1660997570e-01    1.0123208594e+05
    1.1661975086e-01    1.0123207031e+05
    1.1662982404e-01    1.0123206250e+05
    1.1663989723e-01    1.0123205469e+05
    1.1664997041e-01    1.0123203906e+05
    1.1665974557e-01    1.0123203906e+05
    1.1666981876e-01    1.0123203125e+05
    1.1667989939e-01    1.0123203125e+05
    1.1668997258e-01    1.0123202344e+05
    1.1669974774e-01    1.0123202344e+05
    1.1670982093e-01    1.0123200781e+05
    1.1671989411e-01    1.0123200000e+05
    1.1672996730e-01    1.0123199219e+05
    1.1673974991e-01    1.0123197656e+05
    1.1674982309e-01    1.0123197656e+05
    1.1675989628e-01    1.0123196094e+05
    1.1676996946e-01    1.0123196094e+05
    1.1677974463e-01    1.0123194531e+05
    1.1678981781e-01    1.0123192969e+05
    1.1679989100e-01    1.0123191406e+05
    1.1680996418e-01    1.0123190625e+05
    1.1681974679e-01    1.0123189844e+05
    1.1682981998e-01    1.0123187500e+05
    1.1683989316e-01    1.0123185156e+05
    1.1684996635e-01    1.0123185156e+05
    1.1685974151e-01    1.0123183594e+05
    1.1686981469e-01    1.0123183594e+05
    1.1687988788e-01    1.0123181250e+05
    1.1688996106e-01    1.0123180469e+05
    1.1689974368e-01    1.0123178906e+05
    1.1690981686e-01    1.0123178906e+05
    1.1691989005e-01    1.0123178906e+05
    1.1692996323e-01    1.0123178125e+05
    1.1693973839e-01    1.0123178125e+05
    1.1694981158e-01    1.0123177344e+05
    1.1695989221e-01    1.0123177344e+05
    1.1696996540e-01    1.0123177344e+05
    1.1697974056e-01    1.0123175781e+05
    1.1698981375e-01    1.0123175000e+05
    1.1699988693e-01    1.0123174219e+05
    1.1700996011e-01    1.0123172656e+05
    1.1701973528e-01    1.0123171875e+05
    1.1702981591e-01    1.0123171094e+05
    1.1703988910e-01    1.0123169531e+05
    1.1704996228e-01    1.0123168750e+05
    1.1705973744e-01    1.0123167969e+05
    1.1706981063e-01    1.0123166406e+05
    1.1707988381e-01    1.0123165625e+05
    1.1708995700e-01    1.0123164844e+05
    1.1709973961e-01    1.0123164844e+05
    1.1710981280e-01    1.0123164844e+05
    1.1711988598e-01    1.0123163281e+05
    1.1712995917e-01    1.0123163281e+05
    1.1713973433e-01    1.0123162500e+05
    1.1714980751e-01    1.0123161719e+05
    1.1715988070e-01    1.0123161719e+05
    1.1716995388e-01    1.0123160156e+05
    1.1717973650e-01    1.0123160156e+05
    1.1718980968e-01    1.0123159375e+05
    1.1719988286e-01    1.0123159375e+05
    1.1720995605e-01    1.0123158594e+05
    1.1721973121e-01    1.0123158594e+05
    1.1722980440e-01    1.0123157031e+05
    1.1723987758e-01    1.0123155469e+05
    1.1724995822e-01    1.0123153906e+05
    1.1725973338e-01    1.0123153125e+05
    1.1726980656e-01    1.0123152344e+05
    1.1727987975e-01    1.0123152344e+05
    1.1728995293e-01    1.0123150781e+05
    1.1729972810e-01    1.0123150000e+05
    1.1730980873e-01    1.0123149219e+05
    1.1731988192e-01    1.0123147656e+05
    1.1732995510e-01    1.0123147656e+05
    1.1733973026e-01    1.0123147656e+05
    1.1734980345e-01    1.0123147656e+05
    1.1735987663e-01    1.0123146875e+05
    1.1736994982e-01    1.0123146094e+05
    1.1737973243e-01    1.0123146094e+05
    1.1738980561e-01    1.0123144531e+05
    1.1739987880e-01    1.0123143750e+05
    1.1740995198e-01    1.0123141406e+05
    1.1741972715e-01    1.0123141406e+05
    1.1742980033e-01    1.0123140625e+05
    1.1743987352e-01    1.0123139844e+05
    1.1744994670e-01    1.0123139844e+05
    1.1745972931e-01    1.0123138281e+05
    1.1746980250e-01    1.0123137500e+05
    1.1747987568e-01    1.0123136719e+05
    1.1748994887e-01    1.0123135156e+05
    1.1749972403e-01    1.0123135156e+05
    1.1750979722e-01    1.0123135156e+05
    1.1751987040e-01    1.0123134375e+05
    1.1752995104e-01    1.0123133594e+05
    1.1753972620e-01    1.0123133594e+05
    1.1754979938e-01    1.0123131250e+05
    1.1755987257e-01    1.0123130469e+05
    1.1756994575e-01    1.0123128906e+05
    1.1757972091e-01    1.0123128906e+05
    1.1758980155e-01    1.0123127344e+05
    1.1759987473e-01    1.0123127344e+05
    1.1760994792e-01    1.0123125781e+05
    1.1761972308e-01    1.0123124219e+05
    1.1762979627e-01    1.0123122656e+05
    1.1763986945e-01    1.0123122656e+05
    1.1764994264e-01    1.0123121875e+05
    1.1765972525e-01    1.0123121875e+05
    1.1766979843e-01    1.0123121094e+05
    1.1767987162e-01    1.0123121094e+05
    1.1768994480e-01    1.0123121094e+05
    1.1769971997e-01    1.0123119531e+05
    1.1770979315e-01    1.0123118750e+05
    1.1771986634e-01    1.0123117969e+05
    1.1772993952e-01    1.0123116406e+05
    1.1773972213e-01    1.0123116406e+05
    1.1774979532e-01    1.0123115625e+05
    1.1775986850e-01    1.0123114844e+05
    1.1776994169e-01    1.0123114844e+05
    1.1777971685e-01    1.0123113281e+05
    1.1778979003e-01    1.0123112500e+05
    1.1779986322e-01    1.0123111719e+05
    1.1780994385e-01    1.0123110156e+05
    1.1781971902e-01    1.0123110156e+05
    1.1782979220e-01    1.0123109375e+05
    1.1783986539e-01    1.0123108594e+05
    1.1784993857e-01    1.0123108594e+05
    1.1785971373e-01    1.0123107031e+05
    1.1786979437e-01    1.0123106250e+05
    1.1787986755e-01    1.0123105469e+05
    1.1788994074e-01    1.0123103906e+05
    1.1789971590e-01    1.0123103906e+05
    1.1790978909e-01    1.0123103125e+05
    1.1791986227e-01    1.0123102344e+05
    1.1792993546e-01    1.0123102344e+05
    1.1793971807e-01    1.0123100781e+05
    1.1794979125e-01    1.0123100000e+05
    1.1795986444e-01    1.0123099219e+05
    1.1796993762e-01    1.0123099219e+05
    1.1797971278e-01    1.0123097656e+05
    1.1798978597e-01    1.0123097656e+05
    1.1799985915e-01    1.0123096875e+05
    1.1800993234e-01    1.0123096094e+05
    1.1801971495e-01    1.0123096094e+05
    1.1802978814e-01    1.0123094531e+05
    1.1803986132e-01    1.0123093750e+05
    1.1804993451e-01    1.0123092969e+05
    1.1805970967e-01    1.0123091406e+05
    1.1806978285e-01    1.0123091406e+05
    1.1807985604e-01    1.0123090625e+05
    1.1808993667e-01    1.0123089844e+05
    1.1809971184e-01    1.0123089844e+05
    1.1810978502e-01    1.0123089844e+05
    1.1811985821e-01    1.0123088281e+05
    1.1812993139e-01    1.0123087500e+05
    1.1813970655e-01    1.0123086719e+05
    1.1814978719e-01    1.0123086719e+05
    1.1815986037e-01    1.0123085156e+05
    1.1816993356e-01    1.0123085156e+05
    1.1817970872e-01    1.0123085156e+05
    1.1818978190e-01    1.0123084375e+05
    1.1819985509e-01    1.0123083594e+05
    1.1820992827e-01    1.0123083594e+05
    1.1821971089e-01    1.0123081250e+05
    1.1822978407e-01    1.0123080469e+05
    1.1823985726e-01    1.0123078906e+05
    1.1824993044e-01    1.0123078906e+05
    1.1825970560e-01    1.0123077344e+05
    1.1826977879e-01    1.0123077344e+05
    1.1827985197e-01    1.0123075000e+05
    1.1828992516e-01    1.0123074219e+05
    1.1829970777e-01    1.0123072656e+05
    1.1830978096e-01    1.0123071875e+05
    1.1831985414e-01    1.0123071094e+05
    1.1832992733e-01    1.0123069531e+05
    1.1833970249e-01    1.0123068750e+05
    1.1834977567e-01    1.0123066406e+05
    1.1835985631e-01    1.0123066406e+05
    1.1836992949e-01    1.0123065625e+05
    1.1837970465e-01    1.0123064844e+05
    1.1838977784e-01    1.0123064844e+05
    1.1839985102e-01    1.0123063281e+05
    1.1840992421e-01    1.0123062500e+05
    1.1841999739e-01    1.0123061719e+05
    1.1842978001e-01    1.0123061719e+05
    1.1843985319e-01    1.0123061719e+05
    1.1844992638e-01    1.0123060156e+05
    1.1845999956e-01    1.0123060156e+05
    1.1846977472e-01    1.0123060156e+05
    1.1847984791e-01    1.0123059375e+05
    1.1848992109e-01    1.0123058594e+05
    1.1849999428e-01    1.0123058594e+05
    1.1850977689e-01    1.0123057031e+05
    1.1851985008e-01    1.0123056250e+05
    1.1852992326e-01    1.0123055469e+05
    1.1853999645e-01    1.0123055469e+05
    1.1854977161e-01    1.0123053906e+05
    1.1855984479e-01    1.0123053906e+05
    1.1856992543e-01    1.0123053906e+05
    1.1857999861e-01    1.0123053125e+05
    1.1858977377e-01    1.0123053125e+05
    1.1859984696e-01    1.0123052344e+05
    1.1860992014e-01    1.0123052344e+05
    1.1861999333e-01    1.0123052344e+05
    1.1862976849e-01    1.0123050000e+05
    1.1863984913e-01    1.0123049219e+05
    1.1864992231e-01    1.0123047656e+05
    1.1865999550e-01    1.0123046094e+05
    1.1866977066e-01    1.0123044531e+05
    1.1867984384e-01    1.0123042969e+05
    1.1868991703e-01    1.0123041406e+05
    1.1869999021e-01    1.0123041406e+05
    1.1870977283e-01    1.0123041406e+05
    1.1871984601e-01    1.0123041406e+05
    1.1872991920e-01    1.0123041406e+05
    1.1873999238e-01    1.0123042969e+05
    1.1874976754e-01    1.0123042969e+05
    1.1875984073e-01    1.0123041406e+05
    1.1876991391e-01    1.0123041406e+05
    1.1877998710e-01    1.0123040625e+05
    1.1878976971e-01    1.0123039844e+05
    1.1879984289e-01    1.0123037500e+05
    1.1880991608e-01    1.0123035156e+05
    1.1881998926e-01    1.0123035156e+05
    1.1882976443e-01    1.0123034375e+05
    1.1883983761e-01    1.0123033594e+05
    1.1884991825e-01    1.0123033594e+05
    1.1885999143e-01    1.0123032031e+05
    1.1886976659e-01    1.0123032031e+05
    1.1887983978e-01    1.0123031250e+05
    1.1888991296e-01    1.0123030469e+05
    1.1889998615e-01    1.0123028906e+05
    1.1890976876e-01    1.0123027344e+05
    1.1891984195e-01    1.0123027344e+05
    1.1892991513e-01    1.0123025000e+05
    1.1893998832e-01    1.0123024219e+05
    1.1894976348e-01    1.0123022656e+05
    1.1895983666e-01    1.0123022656e+05
    1.1896990985e-01    1.0123022656e+05
    1.1897998303e-01    1.0123022656e+05
    1.1898976564e-01    1.0123022656e+05
    1.1899983883e-01    1.0123022656e+05
    1.1900991201e-01    1.0123022656e+05
    1.1901998520e-01    1.0123022656e+05
    1.1902976036e-01    1.0123021875e+05
    1.1903983355e-01    1.0123021094e+05
    1.1904990673e-01    1.0123021094e+05
    1.1905998737e-01    1.0123019531e+05
    1.1906976253e-01    1.0123017969e+05
    1.1907983571e-01    1.0123016406e+05
    1.1908990890e-01    1.0123014844e+05
    1.1909998208e-01    1.0123013281e+05
    1.1910975724e-01    1.0123011719e+05
    1.1911983788e-01    1.0123010156e+05
    1.1912991107e-01    1.0123009375e+05
    1.1913998425e-01    1.0123008594e+05
    1.1914975941e-01    1.0123007031e+05
    1.1915983260e-01    1.0123005469e+05
    1.1916990578e-01    1.0123003906e+05
    1.1917997897e-01    1.0123003125e+05
    1.1918976158e-01    1.0123002344e+05
    1.1919983476e-01    1.0123000000e+05
    1.1920990795e-01    1.0122997656e+05
    1.1921998113e-01    1.0122997656e+05
    1.1922975630e-01    1.0122996094e+05
    1.1923982948e-01    1.0122996094e+05
    1.1924990267e-01    1.0122996094e+05
    1.1925997585e-01    1.0122996094e+05
    1.1926975846e-01    1.0122996875e+05
    1.1927983165e-01    1.0122997656e+05
    1.1928990483e-01    1.0122997656e+05
    1.1929997802e-01    1.0122999219e+05
    1.1930975318e-01    1.0123000000e+05
    1.1931982636e-01    1.0123000000e+05
    1.1932990700e-01    1.0122999219e+05
    1.1933998019e-01    1.0122997656e+05
    1.1934975535e-01    1.0122996875e+05
    1.1935982853e-01    1.0122994531e+05
    1.1936990172e-01    1.0122992969e+05
    1.1937997490e-01    1.0122990625e+05
    1.1938975751e-01    1.0122988281e+05
    1.1939983070e-01    1.0122985156e+05
    1.1940990388e-01    1.0122983594e+05
    1.1941997707e-01    1.0122982031e+05
    1.1942975223e-01    1.0122980469e+05
    1.1943982542e-01    1.0122978906e+05
    1.1944989860e-01    1.0122978906e+05
    1.1945997179e-01    1.0122978125e+05
    1.1946975440e-01    1.0122978125e+05
    1.1947982758e-01    1.0122978125e+05
    1.1948990077e-01    1.0122978125e+05
    1.1949997395e-01    1.0122978906e+05
    1.1950974911e-01    1.0122978906e+05
    1.1951982230e-01    1.0122978906e+05
    1.1952989548e-01    1.0122978906e+05
    1.1953997612e-01    1.0122980469e+05
    1.1954975128e-01    1.0122980469e+05
    1.1955982447e-01    1.0122978906e+05
    1.1956989765e-01    1.0122978906e+05
    1.1957997084e-01    1.0122977344e+05
    1.1958974600e-01    1.0122977344e+05
    1.1959982663e-01    1.0122974219e+05
    1.1960989982e-01    1.0122972656e+05
    1.1961997300e-01    1.0122971875e+05
    1.1962974817e-01    1.0122971094e+05
    1.1963982135e-01    1.0122971094e+05
    1.1964989454e-01    1.0122971094e+05
    1.1965996772e-01    1.0122971094e+05
    1.1966975033e-01    1.0122971094e+05
    1.1967982352e-01    1.0122971094e+05
    1.1968989670e-01    1.0122971094e+05
    1.1969996989e-01    1.0122971094e+05
    1.1970974505e-01    1.0122968750e+05
    1.1971981823e-01    1.0122966406e+05
    1.1972989142e-01    1.0122964844e+05
    1.1973996460e-01    1.0122963281e+05
    1.1974974722e-01    1.0122961719e+05
    1.1975982040e-01    1.0122960156e+05
    1.1976989359e-01    1.0122959375e+05
    1.1977996677e-01    1.0122958594e+05
    1.1978974193e-01    1.0122958594e+05
    1.1979981512e-01    1.0122958594e+05
    1.1980988830e-01    1.0122958594e+05
    1.1981996894e-01    1.0122958594e+05
    1.1982974410e-01    1.0122958594e+05
    1.1983981729e-01    1.0122958594e+05
    1.1984989047e-01    1.0122957031e+05
    1.1985996366e-01    1.0122956250e+05
    1.1986973882e-01    1.0122953906e+05
    1.1987981945e-01    1.0122953906e+05
    1.1988989264e-01    1.0122952344e+05
    1.1989996582e-01    1.0122950781e+05
    1.1990974098e-01    1.0122950000e+05
    1.1991981417e-01    1.0122949219e+05
    1.1992988735e-01    1.0122947656e+05
    1.1993996054e-01    1.0122947656e+05
    1.1994974315e-01    1.0122947656e+05
    1.1995981634e-01    1.0122947656e+05
    1.1996988952e-01    1.0122946875e+05
    1.1997996271e-01    1.0122946094e+05
    1.1998973787e-01    1.0122946094e+05
    1.1999981105e-01    1.0122946094e+05
endcurve
