Curveplot
LS-DYNA keyword deck by LS-PrePost                          
Time
Pressure
Defined Connection
Pressure @ 9 #pts=12001
* Minval=     7.1560914062e+04 at time=         0.0120597975
* Maxval=     4.0508590625e+05 at time=         0.0040298300
    0.0000000000e+00    1.0120000000e+05
    9.9485332612e-06    1.0120000000e+05
    1.9897426682e-05    1.0120000000e+05
    2.9967670343e-05    1.0120000000e+05
    3.9946917241e-05    1.0120000000e+05
    4.9944548664e-05    1.0120000000e+05
    5.9972415329e-05    1.0120000000e+05
    6.9960617111e-05    1.0120000000e+05
    7.9970872321e-05    1.0120000000e+05
    8.9953049610e-05    1.0120000000e+05
    9.9988596048e-05    1.0120000000e+05
    1.0994882177e-04    1.0120000000e+05
    1.1996061221e-04    1.0120000000e+05
    1.2994413555e-04    1.0120000000e+05
    1.3996200869e-04    1.0120000000e+05
    1.4993610966e-04    1.0120000000e+05
    1.5993103443e-04    1.0120000000e+05
    1.6994161706e-04    1.0120000000e+05
    1.7996222596e-04    1.0120000000e+05
    1.8998634187e-04    1.0120000000e+05
    1.9992937450e-04    1.0120000000e+05
    2.0994179067e-04    1.0120000000e+05
    2.1993929113e-04    1.0120000000e+05
    2.2999783687e-04    1.0120000000e+05
    2.3994775256e-04    1.0120000000e+05
    2.4994800333e-04    1.0120000000e+05
    2.5999560603e-04    1.0120000000e+05
    2.6991433697e-04    1.0120000000e+05
    2.7995757409e-04    1.0120000000e+05
    2.8994723107e-04    1.0120000000e+05
    2.9996514786e-04    1.0120000000e+05
    3.0992022948e-04    1.0120000000e+05
    3.1998805935e-04    1.0120000000e+05
    3.2998117968e-04    1.0120000000e+05
    3.3998530125e-04    1.0120000000e+05
    3.4999760101e-04    1.0120000000e+05
    3.5990937613e-04    1.0120000000e+05
    3.6999981967e-04    1.0120000000e+05
    3.7998356856e-04    1.0120000000e+05
    3.8995320210e-04    1.0120000000e+05
    3.9990706136e-04    1.0120000000e+05
    4.0994153824e-04    1.0120000000e+05
    4.1996000800e-04    1.0120000000e+05
    4.2995926924e-04    1.0120000000e+05
    4.3993763393e-04    1.0120000000e+05
    4.4999475358e-04    1.0120000000e+05
    4.5992733794e-04    1.0120000000e+05
    4.6993893920e-04    1.0120000000e+05
    4.7992487089e-04    1.0120000000e+05
    4.8998632701e-04    1.0120000000e+05
    4.9991713604e-04    1.0120000000e+05
    5.0992559409e-04    1.0120000000e+05
    5.1990384236e-04    1.0120000000e+05
    5.2995997248e-04    1.0120000000e+05
    5.3998240037e-04    1.0120000000e+05
    5.4997345433e-04    1.0120000000e+05
    5.5992952548e-04    1.0120000000e+05
    5.6996213971e-04    1.0120000000e+05
    5.7995726820e-04    1.0120000000e+05
    5.8991363039e-04    1.0120000000e+05
    5.9994676849e-04    1.0120000000e+05
    6.0993985971e-04    1.0120000000e+05
    6.1989109963e-04    1.0120000000e+05
    6.2991696177e-04    1.0120000000e+05
    6.3989753835e-04    1.0120000000e+05
    6.4995506546e-04    1.0120000000e+05
    6.5996724879e-04    1.0120000000e+05
    6.6993245855e-04    1.0120000000e+05
    6.7997176666e-04    1.0120000000e+05
    6.8995979382e-04    1.0120000000e+05
    6.9989968324e-04    1.0120000000e+05
    7.0991268149e-04    1.0120000000e+05
    7.1999989450e-04    1.0120000000e+05
    7.2990718763e-04    1.0120000000e+05
    7.3988677468e-04    1.0120000000e+05
    7.4993696762e-04    1.0120000000e+05
    7.5993355131e-04    1.0120000000e+05
    7.6987204375e-04    1.0120000000e+05
    7.7988271369e-04    1.0120000000e+05
    7.8996637603e-04    1.0120000000e+05
    7.9998996807e-04    1.0120000000e+05
    8.0995127792e-04    1.0120000000e+05
    8.1998156384e-04    1.0120000000e+05
    8.2995049888e-04    1.0120000000e+05
    8.3999108756e-04    1.0120000000e+05
    8.4996514488e-04    1.0120000000e+05
    8.5987069178e-04    1.0120000000e+05
    8.6998759070e-04    1.0120000000e+05
    8.7989354506e-04    1.0120000000e+05
    8.8986527408e-04    1.0120000000e+05
    8.9990958804e-04    1.0120000000e+05
    9.0988294687e-04    1.0120000000e+05
    9.1992679518e-04    1.0120000000e+05
    9.2989485711e-04    1.0120000000e+05
    9.3993294286e-04    1.0120000000e+05
    9.4989268109e-04    1.0120000000e+05
    9.5992209390e-04    1.0120000000e+05
    9.6987007419e-04    1.0120000000e+05
    9.7988417838e-04    1.0120000000e+05
    9.8997168243e-04    1.0120000000e+05
    9.9997536745e-04    1.0120000000e+05
    1.0098927887e-03    1.0120000000e+05
    1.0198783129e-03    1.0120000000e+05
    1.0299324058e-03    1.0120000000e+05
    1.0398973245e-03    1.0120000000e+05
    1.0499303462e-03    1.0120000000e+05
    1.0598711669e-03    1.0120000000e+05
    1.0698793922e-03    1.0120000000e+05
    1.0799522279e-03    1.0120000000e+05
    1.0899316985e-03    1.0120000000e+05
    1.0999798542e-03    1.0120000000e+05
    1.1099296389e-03    1.0120000000e+05
    1.1199458968e-03    1.0120000000e+05
    1.1298607569e-03    1.0120000000e+05
    1.1398410425e-03    1.0120000000e+05
    1.1498876847e-03    1.0120000000e+05
    1.1598292040e-03    1.0120000000e+05
    1.1698362650e-03    1.0120000000e+05
    1.1799092172e-03    1.0120000000e+05
    1.1898735538e-03    1.0120000000e+05
    1.1999028502e-03    1.0120000000e+05
    1.2099973392e-03    1.0120000000e+05
    1.2199738994e-03    1.0120000000e+05
    1.2298411457e-03    1.0120000000e+05
    1.2399526313e-03    1.0120000000e+05
    1.2499475852e-03    1.0120000000e+05
    1.2598234462e-03    1.0120000000e+05
    1.2699464569e-03    1.0120000000e+05
    1.2799490942e-03    1.0120000000e+05
    1.2898286805e-03    1.0120000000e+05
    1.2999584433e-03    1.0120000000e+05
    1.3099638745e-03    1.0120000000e+05
    1.3198421802e-03    1.0120000000e+05
    1.3299739221e-03    1.0120000000e+05
    1.3399773743e-03    1.0120000000e+05
    1.3498497428e-03    1.0120000000e+05
    1.3599785743e-03    1.0120000000e+05
    1.3699751580e-03    1.0120000000e+05
    1.3798365835e-03    1.0120000000e+05
    1.3899576152e-03    1.0120000000e+05
    1.3999332441e-03    1.0120000000e+05
    1.4099715045e-03    1.0120000000e+05
    1.4198698336e-03    1.0120000000e+05
    1.4298277674e-03    1.0120000000e+05
    1.4398553176e-03    1.0120000000e+05
    1.4499464305e-03    1.0120000000e+05
    1.4598926064e-03    1.0120000000e+05
    1.4698995510e-03    1.0120000000e+05
    1.4799683122e-03    1.0120000000e+05
    1.4898878289e-03    1.0120000000e+05
    1.4998675324e-03    1.0120000000e+05
    1.5099087032e-03    1.0120000000e+05
    1.5197958564e-03    1.0120000000e+05
    1.5299597289e-03    1.0120000000e+05
    1.5399686527e-03    1.0120000000e+05
    1.5498192515e-03    1.0120000000e+05
    1.5599499457e-03    1.0120000000e+05
    1.5699209180e-03    1.0120000000e+05
    1.5799525427e-03    1.0120000000e+05
    1.5898204874e-03    1.0120000000e+05
    1.5999743482e-03    1.0120000000e+05
    1.6099627828e-03    1.0120000000e+05
    1.6197829973e-03    1.0120000000e+05
    1.6298922710e-03    1.0120000000e+05
    1.6398319276e-03    1.0120000000e+05
    1.6498307232e-03    1.0120000000e+05
    1.6598913353e-03    1.0120000000e+05
    1.6697776737e-03    1.0120000000e+05
    1.6799597070e-03    1.0120000000e+05
    1.6899653710e-03    1.0120000000e+05
    1.6997914063e-03    1.0120000000e+05
    1.7099181423e-03    1.0120000000e+05
    1.7198646674e-03    1.0120000000e+05
    1.7298709136e-03    1.0120000000e+05
    1.7399366479e-03    1.0120000000e+05
    1.7498165835e-03    1.0120000000e+05
    1.7597560072e-03    1.0120000000e+05
    1.7697548028e-03    1.0120000000e+05
    1.7798144836e-03    1.0120000000e+05
    1.7899357481e-03    1.0120000000e+05
    1.7998632975e-03    1.0120000000e+05
    1.8098506844e-03    1.0120000000e+05
    1.8198989565e-03    1.0120000000e+05
    1.8297485076e-03    1.0120000000e+05
    1.8399183173e-03    1.0120000000e+05
    1.8498877762e-03    1.0120000000e+05
    1.8599176547e-03    1.0120000000e+05
    1.8697425257e-03    1.0120000000e+05
    1.8798940582e-03    1.0120000000e+05
    1.8898383714e-03    1.0120000000e+05
    1.8998432206e-03    1.0120000000e+05
    1.9099089550e-03    1.0120000000e+05
    1.9197619986e-03    1.0120000000e+05
    1.9299503183e-03    1.0120000000e+05
    1.9399244338e-03    1.0120000000e+05
    1.9499592017e-03    1.0120000000e+05
    1.9597739447e-03    1.0120000000e+05
    1.9699239638e-03    1.0120000000e+05
    1.9798516296e-03    1.0120000000e+05
    1.9898379687e-03    1.0120000000e+05
    1.9998876378e-03    1.0120000000e+05
    2.0097109955e-03    1.0120000000e+05
    2.0198917482e-03    1.0120000000e+05
    2.0298426971e-03    1.0120000000e+05
    2.0398546476e-03    1.0120000000e+05
    2.0499287639e-03    1.0120000000e+05
    2.0597665571e-03    1.0120000000e+05
    2.0699650049e-03    1.0120000000e+05
    2.0799252670e-03    1.0120000000e+05
    2.0899472293e-03    1.0120000000e+05
    2.0997247193e-03    1.0120000000e+05
    2.1098705474e-03    1.0120000000e+05
    2.1197702736e-03    1.0120000000e+05
    2.1297310013e-03    1.0120000000e+05
    2.1397538949e-03    1.0120000000e+05
    2.1498396527e-03    1.0120000000e+05
    2.1599894390e-03    1.0120000000e+05
    2.1698838100e-03    1.0120000000e+05
    2.1798396483e-03    1.0120000000e+05
    2.1898581181e-03    1.0120000000e+05
    2.1999401506e-03    1.0120000000e+05
    2.2097576875e-03    1.0120000000e+05
    2.2199600935e-03    1.0120000000e+05
    2.2299035918e-03    1.0120000000e+05
    2.2399097215e-03    1.0120000000e+05
    2.2499801125e-03    1.0120000000e+05
    2.2597762290e-03    1.0120000000e+05
    2.2699751426e-03    1.0120000000e+05
    2.2798974533e-03    1.0120000000e+05
    2.2898833267e-03    1.0120000000e+05
    2.2999336943e-03    1.0120000000e+05
    2.3096993100e-03    1.0120000000e+05
    2.3198788986e-03    1.0120000000e+05
    2.3297714069e-03    1.0120000000e+05
    2.3397277109e-03    1.0120000000e+05
    2.3497485090e-03    1.0120000000e+05
    2.3598354310e-03    1.0120000000e+05
    2.3699891753e-03    1.0120000000e+05
    2.3798418697e-03    1.0120000000e+05
    2.3897576611e-03    1.0120000000e+05
    2.3997423705e-03    1.0120000000e+05
    2.4097927380e-03    1.0120000000e+05
    2.4199108593e-03    1.0120000000e+05
    2.4297183845e-03    1.0120000000e+05
    2.4399715476e-03    1.0120000000e+05
    2.4499115534e-03    1.0120000000e+05
    2.4599181488e-03    1.0120000000e+05
    2.4699924979e-03    1.0120000000e+05
    2.4797441438e-03    1.0120000000e+05
    2.4899544660e-03    1.0120000000e+05
    2.4998390581e-03    1.0120000000e+05
    2.5097904727e-03    1.0120000000e+05
    2.5198094081e-03    1.0120000000e+05
    2.5298933033e-03    1.0120000000e+05
    2.5396444835e-03    1.0120000000e+05
    2.5498720352e-03    1.0120000000e+05
    2.5597589556e-03    1.0120000000e+05
    2.5697140954e-03    1.0120000000e+05
    2.5797386188e-03    1.0120000000e+05
    2.5898341555e-03    1.0120000000e+05
    2.5995762553e-03    1.0120000000e+05
    2.6098135859e-03    1.0120000000e+05
    2.6196946856e-03    1.0120000000e+05
    2.6296393480e-03    1.0120000000e+05
    2.6396235917e-03    1.0120000000e+05
    2.6496518403e-03    1.0120000000e+05
    2.6597208343e-03    1.0120000000e+05
    2.6698205620e-03    1.0120000000e+05
    2.6799491607e-03    1.0120000000e+05
    2.6896537747e-03    1.0120000000e+05
    2.6998112444e-03    1.0120000000e+05
    2.7099803556e-03    1.0120000000e+05
    2.7197336312e-03    1.0120000000e+05
    2.7299404610e-03    1.0120000000e+05
    2.7396918740e-03    1.0120000000e+05
    2.7499122079e-03    1.0120000000e+05
    2.7596591972e-03    1.0120000000e+05
    2.7698660269e-03    1.0120000000e+05
    2.7796472423e-03    1.0120000000e+05
    2.7898324188e-03    1.0120000000e+05
    2.7995784767e-03    1.0120000000e+05
    2.8097692411e-03    1.0120000000e+05
    2.8199579101e-03    1.0120000000e+05
    2.8297200333e-03    1.0120000000e+05
    2.8398837894e-03    1.0120000000e+05
    2.8496368323e-03    1.0120000000e+05
    2.8598124627e-03    1.0120000000e+05
    2.8695445508e-03    1.0120000000e+05
    2.8797283303e-03    1.0120000000e+05
    2.8898704331e-03    1.0120000000e+05
    2.8996099718e-03    1.0120000000e+05
    2.9098386876e-03    1.0120000000e+05
    2.9195463285e-03    1.0120000000e+05
    2.9296951834e-03    1.0120000000e+05
    2.9399029445e-03    1.0120000000e+05
    2.9496266507e-03    1.0120000000e+05
    2.9597755056e-03    1.0120000000e+05
    2.9695569538e-03    1.0120000000e+05
    2.9797395691e-03    1.0120000000e+05
    2.9899664223e-03    1.0120000000e+05
    2.9997788370e-03    1.0120000000e+05
    3.0096038245e-03    1.0120000000e+05
    3.0198963359e-03    1.0120000000e+05
    3.0297264457e-03    1.0120000000e+05
    3.0395612121e-03    1.0120000000e+05
    3.0498972628e-03    1.0120000000e+05
    3.0597785953e-03    1.0120000000e+05
    3.0696697067e-03    1.0120000000e+05
    3.0795722269e-03    1.0120000000e+05
    3.0899443664e-03    1.0120000000e+05
    3.0998550355e-03    1.0120000000e+05
    3.1097650062e-03    1.0120000000e+05
    3.1196775381e-03    1.0120000000e+05
    3.1295823865e-03    1.0120000000e+05
    3.1399375293e-03    1.0120000000e+05
    3.1498079188e-03    1.0120000000e+05
    3.1596773770e-03    1.0120000000e+05
    3.1699673273e-03    1.0120000000e+05
    3.1797911506e-03    1.0120000000e+05
    3.1895823777e-03    1.0120000000e+05
    3.1997831538e-03    1.0120000000e+05
    3.2099441160e-03    1.0120000000e+05
    3.2196200918e-03    1.0120000000e+05
    3.2296793070e-03    1.0120000000e+05
    3.2396796159e-03    1.0120000000e+05
    3.2496217173e-03    1.0120000000e+05
    3.2599298283e-03    1.0120000000e+05
    3.2697557472e-03    1.0120000000e+05
    3.2799488399e-03    1.0120000000e+05
    3.2896611374e-03    1.0120000000e+05
    3.2997368835e-03    1.0120000000e+05
    3.3097537234e-03    1.0120000000e+05
    3.3197125886e-03    1.0120000000e+05
    3.3296111505e-03    1.0120000000e+05
    3.3398645464e-03    1.0120000000e+05
    3.3496499527e-03    1.0120000000e+05
    3.3597841393e-03    1.0120000000e+05
    3.3698582556e-03    1.0120000000e+05
    3.3798730001e-03    1.0120000000e+05
    3.3898293041e-03    1.0120000000e+05
    3.3997253049e-03    1.0120000000e+05
    3.4099582117e-03    1.0120000000e+05
    3.4197398927e-03    1.0120000000e+05
    3.4298526589e-03    1.0120000000e+05
    3.4399053548e-03    1.0120000000e+05
    3.4498977475e-03    1.0120000000e+05
    3.4598314669e-03    1.0120000000e+05
    3.4697034862e-03    1.0120000000e+05
    3.4798965789e-03    1.0120000000e+05
    3.4896528814e-03    1.0120000000e+05
    3.4997242037e-03    1.0120000000e+05
    3.5097340588e-03    1.0120000000e+05
    3.5196833778e-03    1.0120000000e+05
    3.5299367737e-03    1.0120000000e+05
    3.5397603642e-03    1.0120000000e+05
    3.5498889629e-03    1.0120000000e+05
    3.5599544644e-03    1.0120000000e+05
    3.5699571017e-03    1.0120000000e+05
    3.5798975732e-03    1.0120000000e+05
    3.5897758789e-03    1.0120000000e+05
    3.5999405663e-03    1.0120000000e+05
    3.6096933763e-03    1.0120000000e+05
    3.6197314039e-03    1.0120000000e+05
    3.6297051702e-03    1.0120000000e+05
    3.6399548408e-03    1.0120000000e+05
    3.6497984547e-03    1.0120000000e+05
    3.6599144805e-03    1.0120000000e+05
    3.6699632183e-03    1.0120000000e+05
    3.6799444351e-03    1.0120000000e+05
    3.6898588296e-03    1.0120000000e+05
    3.6997068673e-03    1.0120000000e+05
    3.7098138127e-03    1.0120000000e+05
    3.7198504433e-03    1.0120000000e+05
    3.7298172247e-03    1.0120000000e+05
    3.7397143897e-03    1.0120000000e+05
    3.7498578895e-03    1.0120000000e+05
    3.7599275820e-03    1.0120000000e+05
    3.7699241657e-03    1.0120000000e+05
    3.7798476405e-03    1.0120000000e+05
    3.7896982394e-03    1.0120000000e+05
    3.7997807376e-03    1.0120000000e+05
    3.8097857032e-03    1.0120000000e+05
    3.8197138347e-03    1.0120000000e+05
    3.8298624568e-03    1.0120000000e+05
    3.8399295881e-03    1.0120000000e+05
    3.8499159273e-03    1.0120000000e+05
    3.8598210085e-03    1.0120000000e+05
    3.8699328434e-03    1.0120000000e+05
    3.8799585309e-03    1.0120000000e+05
    3.8898983039e-03    1.0120000000e+05
    3.8997521624e-03    1.0120000000e+05
    3.9097983390e-03    1.0120000000e+05
    3.9197532460e-03    1.0120000000e+05
    3.9298897609e-03    1.0120000000e+05
    3.9399298839e-03    1.0120000000e+05
    3.9498736151e-03    1.0120000000e+05
    3.9599849842e-03    1.0120000000e+05
    3.9699934423e-03    1.0120000000e+05
    3.9798994549e-03    1.0120000000e+05
    3.9899586700e-03    1.0120000000e+05
    3.9999084547e-03    1.0120000000e+05
    4.0099993348e-03    1.0120000000e+05
    4.0199728683e-03    1.7122106250e+05
    4.0298299864e-03    4.0508590625e+05
    4.0398109704e-03    4.0164321875e+05
    4.0499055758e-03    3.9819203125e+05
    4.0598674677e-03    3.9483165625e+05
    4.0699280798e-03    3.9148450000e+05
    4.0798461996e-03    3.8822953125e+05
    4.0898467414e-03    3.8499162500e+05
    4.0999166667e-03    3.8177512500e+05
    4.1098245420e-03    3.7865290625e+05
    4.1199969128e-03    3.7549065625e+05
    4.1299862787e-03    3.7242734375e+05
    4.1399956681e-03    3.6939871875e+05
    4.1498062201e-03    3.6646940625e+05
    4.1598086245e-03    3.6352190625e+05
    4.1699693538e-03    3.6056734375e+05
    4.1798762977e-03    3.5772425000e+05
    4.1898861527e-03    3.5488915625e+05
    4.1999546811e-03    3.5207490625e+05
    4.2098625563e-03    3.4934178125e+05
    4.2198994197e-03    3.4660862500e+05
    4.2299767956e-03    3.4389996875e+05
    4.2399875820e-03    3.4124396875e+05
    4.2499313131e-03    3.3863915625e+05
    4.2599602602e-03    3.3604512500e+05
    4.2699114420e-03    3.3350318750e+05
    4.2799138464e-03    3.3098462500e+05
    4.2898673564e-03    3.2851312500e+05
    4.2999489233e-03    3.2604003125e+05
    4.3099573813e-03    3.2361425000e+05
    4.3199425563e-03    3.2122400000e+05
    4.3298760429e-03    3.1887621875e+05
    4.3398998678e-03    3.1653678125e+05
    4.3499371968e-03    3.1422409375e+05
    4.3599279597e-03    3.1195109375e+05
    4.3699461967e-03    3.0969775000e+05
    4.3799565174e-03    3.0747596875e+05
    4.3899319135e-03    3.0528721875e+05
    4.3999943882e-03    3.0310703125e+05
    4.4098543003e-03    3.0099640625e+05
    4.4199889526e-03    2.9885443750e+05
    4.4298572466e-03    2.9679240625e+05
    4.4398456812e-03    2.9473300000e+05
    4.4498876669e-03    2.9268575000e+05
    4.4598700479e-03    2.9067565625e+05
    4.4698868878e-03    2.8868268750e+05
    4.4798324816e-03    2.8672762500e+05
    4.4899908826e-03    2.8475431250e+05
    4.4998815283e-03    2.8285565625e+05
    4.5099803247e-03    2.8093956250e+05
    4.5199929737e-03    2.7906406250e+05
    4.5298435725e-03    2.7723943750e+05
    4.5399507508e-03    2.7538968750e+05
    4.5499117114e-03    2.7358734375e+05
    4.5599313453e-03    2.7179487500e+05
    4.5699873008e-03    2.7001843750e+05
    4.5799156651e-03    2.6828400000e+05
    4.5898775570e-03    2.6656293750e+05
    4.5998790301e-03    2.6485475000e+05
    4.6099349856e-03    2.6315753125e+05
    4.6198256314e-03    2.6150695312e+05
    4.6299700625e-03    2.5983300000e+05
    4.6399296261e-03    2.5820868750e+05
    4.6499664895e-03    2.5659089062e+05
    4.6598003246e-03    2.5502304688e+05
    4.6699219383e-03    2.5342750000e+05
    4.6798284166e-03    2.5188356250e+05
    4.6898145229e-03    2.5034420312e+05
    4.6999952756e-03    2.4879232812e+05
    4.7098426148e-03    2.4730917188e+05
    4.7199083492e-03    2.4580920312e+05
    4.7297980636e-03    2.4435148438e+05
    4.7399648465e-03    2.4286945312e+05
    4.7498955391e-03    2.4143792188e+05
    4.7599454410e-03    2.4000468750e+05
    4.7699282877e-03    2.3859635938e+05
    4.7798175365e-03    2.3721620312e+05
    4.7898911871e-03    2.3582568750e+05
    4.7997971997e-03    2.3447323438e+05
    4.8099714331e-03    2.3309885938e+05
    4.8199240118e-03    2.3176957812e+05
    4.8299571499e-03    2.3044329688e+05
    4.8399814405e-03    2.2913329688e+05
    4.8498543911e-03    2.2785582812e+05
    4.8599606380e-03    2.2656254688e+05
    4.8698759638e-03    2.2530645312e+05
    4.8798481002e-03    2.2405676562e+05
    4.8898160458e-03    2.2282010938e+05
    4.8998440616e-03    2.2158970312e+05
    4.9098832533e-03    2.2037054688e+05
    4.9199606292e-03    2.1916004688e+05
    4.9298363738e-03    2.1798542188e+05
    4.9399728887e-03    2.1679289062e+05
    4.9499012530e-03    2.1563617188e+05
    4.9598631449e-03    2.1448831250e+05
    4.9698497169e-03    2.1334887500e+05
    4.9798614345e-03    2.1221907812e+05
    4.9898908474e-03    2.1109810938e+05
    4.9999533221e-03    2.0998539062e+05
    5.0098109059e-03    2.0890575000e+05
    5.0199045800e-03    2.0781106250e+05
    5.0298115239e-03    2.0674729688e+05
    5.0399517640e-03    2.0566907812e+05
    5.0498922355e-03    2.0462345312e+05
    5.0598555245e-03    2.0358564062e+05
    5.0698337145e-03    2.0255704688e+05
    5.0798300654e-03    2.0153676562e+05
    5.0898441114e-03    2.0052451562e+05
    5.0998865627e-03    1.9951987500e+05
    5.1099341363e-03    1.9852401562e+05
    5.1197698340e-03    1.9755870312e+05
    5.1298644394e-03    1.9657767188e+05
    5.1399604417e-03    1.9560579688e+05
    5.1498441026e-03    1.9466395312e+05
    5.1599838771e-03    1.9370667188e+05
    5.1698964089e-03    1.9277970312e+05
    5.1798210479e-03    1.9186079688e+05
    5.1897699013e-03    1.9094837500e+05
    5.1999539137e-03    1.9002354688e+05
    5.2099172026e-03    1.8912776562e+05
    5.2198953927e-03    1.8823910938e+05
    5.2298880182e-03    1.8735751562e+05
    5.2398811094e-03    1.8648392188e+05
    5.2498863079e-03    1.8561718750e+05
    5.2599064074e-03    1.8475726562e+05
    5.2699269727e-03    1.8390529688e+05
    5.2799535915e-03    1.8306070312e+05
    5.2899895236e-03    1.8222343750e+05
    5.2997982129e-03    1.8141276562e+05
    5.3098401986e-03    1.8059042188e+05
    5.3198859096e-03    1.7977525000e+05
    5.3299325518e-03    1.7896737500e+05
    5.3399791941e-03    1.7816675000e+05
    5.3497930057e-03    1.7739173438e+05
    5.3598405793e-03    1.7660542188e+05
    5.3698886186e-03    1.7582620312e+05
    5.3799366578e-03    1.7505395312e+05
    5.3899856284e-03    1.7428848438e+05
    5.3998008370e-03    1.7354734375e+05
    5.4098493420e-03    1.7279525000e+05
    5.4198978469e-03    1.7204992188e+05
    5.4299463518e-03    1.7131146875e+05
    5.4399943911e-03    1.7058017188e+05
    5.4498086683e-03    1.6987323438e+05
    5.4598562419e-03    1.6915757812e+05
    5.4699033499e-03    1.6845067188e+05
    5.4799499922e-03    1.6775278125e+05
    5.4899961688e-03    1.6706357812e+05
    5.4998081177e-03    1.6639771875e+05
    5.5098533630e-03    1.6572179688e+05
    5.5198981427e-03    1.6504971875e+05
    5.5299424566e-03    1.6437982812e+05
    5.5399863049e-03    1.6371154688e+05
    5.5497959256e-03    1.6306101562e+05
    5.5598383769e-03    1.6239896875e+05
    5.5698798969e-03    1.6174303125e+05
    5.5799209513e-03    1.6109490625e+05
    5.5899620056e-03    1.6045514062e+05
    5.5997683667e-03    1.5983773438e+05
    5.6098056957e-03    1.5921198438e+05
    5.6198434904e-03    1.5859098438e+05
    5.6298836134e-03    1.5797387500e+05
    5.6399176829e-03    1.5736128125e+05
    5.6499512866e-03    1.5675367188e+05
    5.6599974632e-03    1.5615093750e+05
    5.6698024273e-03    1.5556829688e+05
    5.6798383594e-03    1.5497743750e+05
    5.6898947805e-03    1.5439056250e+05
    5.6999572553e-03    1.5380785938e+05
    5.7097761892e-03    1.5324353125e+05
    5.7198456489e-03    1.5266945312e+05
    5.7299379259e-03    1.5209892188e+05
    5.7397801429e-03    1.5154715625e+05
    5.7498672977e-03    1.5098653125e+05
    5.7599823922e-03    1.5042915625e+05
    5.7698581368e-03    1.4988943750e+05
    5.7799629867e-03    1.4934162500e+05
    5.7898606174e-03    1.4880946875e+05
    5.7997689582e-03    1.4828093750e+05
    5.8099026792e-03    1.4774479688e+05
    5.8198138140e-03    1.4722487500e+05
    5.8299801312e-03    1.4669593750e+05
    5.8399126865e-03    1.4618331250e+05
    5.8498457074e-03    1.4567467188e+05
    5.8597926982e-03    1.4516935938e+05
    5.8699864894e-03    1.4465559375e+05
    5.8799479157e-03    1.4415760938e+05
    5.8899158612e-03    1.4366331250e+05
    5.8998921886e-03    1.4317259375e+05
    5.9098755009e-03    1.4268542188e+05
    5.9198676609e-03    1.4220164062e+05
    5.9298672713e-03    1.4172137500e+05
    5.9398687445e-03    1.4124481250e+05
    5.9498790652e-03    1.4077156250e+05
    5.9599005617e-03    1.4030142188e+05
    5.9699267149e-03    1.3983475000e+05
    5.9799551964e-03    1.3937171875e+05
    5.9899915941e-03    1.3891206250e+05
    5.9998012148e-03    1.3846631250e+05
    6.0098515823e-03    1.3801301562e+05
    6.0199047439e-03    1.3756303125e+05
    6.0299667530e-03    1.3711609375e+05
    6.0398001224e-03    1.3668265625e+05
    6.0498784296e-03    1.3624196875e+05
    6.0599595308e-03    1.3580468750e+05
    6.0698068701e-03    1.3538079688e+05
    6.0799038038e-03    1.3494937500e+05
    6.0897655785e-03    1.3453109375e+05
    6.0998657718e-03    1.3410596875e+05
    6.1099752784e-03    1.3368390625e+05
    6.1198510230e-03    1.3327481250e+05
    6.1299772933e-03    1.3285857812e+05
    6.1398623511e-03    1.3245518750e+05
    6.1499928124e-03    1.3204479688e+05
    6.1598932371e-03    1.3164667188e+05
    6.1697987840e-03    1.3125129688e+05
    6.1799488030e-03    1.3084908594e+05
    6.1898576096e-03    1.3045935156e+05
    6.1997757293e-03    1.3007206250e+05
    6.2099420466e-03    1.2967802344e+05
    6.2198699452e-03    1.2929624219e+05
    6.2297978438e-03    1.2891752344e+05
    6.2399748713e-03    1.2853241406e+05
    6.2499209307e-03    1.2815884375e+05
    6.2598679215e-03    1.2778789844e+05
    6.2698209658e-03    1.2741925781e+05
    6.2797726132e-03    1.2705316406e+05
    6.2899822369e-03    1.2668021875e+05
    6.2999469228e-03    1.2631884375e+05
    6.3099148683e-03    1.2596003906e+05
    6.3198865391e-03    1.2560390625e+05
    6.3298647292e-03    1.2525032031e+05
    6.3398522325e-03    1.2489884375e+05
    6.3498355448e-03    1.2454985156e+05
    6.3598286361e-03    1.2420278906e+05
    6.3698221929e-03    1.2385821875e+05
    6.3798278570e-03    1.2351608594e+05
    6.3898297958e-03    1.2317697656e+05
    6.3998326659e-03    1.2284031250e+05
    6.4098471776e-03    1.2250500781e+05
    6.4198621549e-03    1.2217124219e+05
    6.4298883080e-03    1.2183937500e+05
    6.4399014227e-03    1.2151139844e+05
    6.4499303699e-03    1.2118696875e+05
    6.4599597827e-03    1.2086544531e+05
    6.4699989744e-03    1.2054428125e+05
    6.4797908999e-03    1.2023002344e+05
    6.4898245037e-03    1.1990799219e+05
    6.4998748712e-03    1.1958872656e+05
    6.5099205822e-03    1.1927672656e+05
    6.5199779347e-03    1.1897238281e+05
    6.5297801048e-03    1.1867980469e+05
    6.5398379229e-03    1.1837694531e+05
    6.5499031916e-03    1.1806653906e+05
    6.5599656664e-03    1.1775066406e+05
    6.5697901882e-03    1.1744372656e+05
    6.5798545256e-03    1.1713892969e+05
    6.5899332985e-03    1.1684864844e+05
    6.5997657366e-03    1.1657877344e+05
    6.6098463722e-03    1.1630660156e+05
    6.6199228168e-03    1.1602597656e+05
    6.6297566518e-03    1.1573700000e+05
    6.6398549825e-03    1.1542889844e+05
    6.6499570385e-03    1.1511971094e+05
    6.6598113626e-03    1.1482586719e+05
    6.6699078307e-03    1.1453780469e+05
    6.6797565669e-03    1.1427160156e+05
    6.6898530349e-03    1.1401303906e+05
    6.6999541596e-03    1.1376307031e+05
    6.7098173313e-03    1.1351705469e+05
    6.7199259065e-03    1.1325321094e+05
    6.7297848873e-03    1.1298260156e+05
    6.7398888059e-03    1.1269744531e+05
    6.7499913275e-03    1.1241168750e+05
    6.7598456517e-03    1.1213677344e+05
    6.7699472420e-03    1.1186060156e+05
    6.7798094824e-03    1.1159721875e+05
    6.7899269052e-03    1.1133399219e+05
    6.7997965962e-03    1.1108437500e+05
    6.8099112250e-03    1.1083541406e+05
    6.8197776563e-03    1.1059734375e+05
    6.8298894912e-03    1.1035503906e+05
    6.8397545256e-03    1.1011716406e+05
    6.8498658948e-03    1.0987046094e+05
    6.8599772640e-03    1.0962203906e+05
    6.8698422983e-03    1.0938071094e+05
    6.8799536675e-03    1.0913652344e+05
    6.8898182362e-03    1.0890172656e+05
    6.8999291398e-03    1.0866327344e+05
    6.9097932428e-03    1.0843091406e+05
    6.9199055433e-03    1.0819182031e+05
    6.9297724403e-03    1.0795777344e+05
    6.9398852065e-03    1.0771803906e+05
    6.9499975070e-03    1.0747962500e+05
    6.9598630071e-03    1.0724883594e+05
    6.9699743763e-03    1.0701416406e+05
    6.9798384793e-03    1.0678699219e+05
    6.9899489172e-03    1.0655600000e+05
    6.9998125546e-03    1.0633268750e+05
    7.0099225268e-03    1.0610616406e+05
    7.0197861642e-03    1.0588761719e+05
    7.0298966020e-03    1.0566597656e+05
    7.0397607051e-03    1.0545174219e+05
    7.0498706773e-03    1.0523369531e+05
    7.0599806495e-03    1.0501672656e+05
    7.0698433556e-03    1.0480582031e+05
    7.0799519308e-03    1.0459033594e+05
    7.0898132399e-03    1.0438069531e+05
    7.0999208838e-03    1.0416628906e+05
    7.1097812615e-03    1.0395769531e+05
    7.1198884398e-03    1.0374482031e+05
    7.1299951524e-03    1.0353327344e+05
    7.1398555301e-03    1.0332865625e+05
    7.1499622427e-03    1.0312103906e+05
    7.1598221548e-03    1.0292031250e+05
    7.1699288674e-03    1.0271616406e+05
    7.1797883138e-03    1.0251884375e+05
    7.1898950264e-03    1.0231902344e+05
    7.1997563355e-03    1.0212650781e+05
    7.2098667733e-03    1.0193146094e+05
    7.2199758142e-03    1.0173843750e+05
    7.2298366576e-03    1.0155137500e+05
    7.2399433702e-03    1.0135992969e+05
    7.2498028167e-03    1.0117290625e+05
    7.2599076666e-03    1.0098116406e+05
    7.2697671130e-03    1.0079460156e+05
    7.2798770852e-03    1.0060433594e+05
    7.2899912484e-03    1.0041541406e+05
    7.2998581454e-03    1.0023283594e+05
    7.3099704459e-03    1.0004738281e+05
    7.3198354803e-03    9.9867648438e+04
    7.3299468495e-03    9.9683898438e+04
    7.3398104869e-03    9.9504570312e+04
    7.3499227874e-03    9.9320343750e+04
    7.3597915471e-03    9.9140117188e+04
    7.3699080385e-03    9.8955117188e+04
    7.3797763325e-03    9.8774976562e+04
    7.3898904957e-03    9.8591789062e+04
    7.3997573927e-03    9.8415812500e+04
    7.4098701589e-03    9.8239585938e+04
    7.4199880473e-03    9.8068312500e+04
    7.4298609979e-03    9.7906007812e+04
    7.4399798177e-03    9.7743382812e+04
    7.4498509057e-03    9.7585789062e+04
    7.4599678628e-03    9.7422023438e+04
    7.4698389508e-03    9.7257539062e+04
    7.4799614958e-03    9.7083789062e+04
    7.4898367748e-03    9.6911476562e+04
    7.4999579228e-03    9.6735460938e+04
    7.5098318048e-03    9.6567101562e+04
    7.5199515559e-03    9.6399570312e+04
    7.5298282318e-03    9.6240968750e+04
    7.5399531052e-03    9.6082437500e+04
    7.5498297811e-03    9.5930476562e+04
    7.5599532574e-03    9.5776093750e+04
    7.5698290020e-03    9.5625585938e+04
    7.5799548067e-03    9.5470367188e+04
    7.5898342766e-03    9.5317507812e+04
    7.5999596156e-03    9.5159062500e+04
    7.6098381542e-03    9.5002726562e+04
    7.6199634932e-03    9.4841398438e+04
    7.6298438944e-03    9.4684460938e+04
    7.6399710961e-03    9.4526523438e+04
    7.6498505659e-03    9.4377500000e+04
    7.6599763706e-03    9.4231039062e+04
    7.6698577031e-03    9.4093039062e+04
    7.6799863018e-03    9.3953101562e+04
    7.6898667030e-03    9.3813664062e+04
    7.6999943703e-03    9.3664867188e+04
    7.7098752372e-03    9.3514437500e+04
    7.7197570354e-03    9.3362281250e+04
    7.7298856340e-03    9.3209023438e+04
    7.7397669666e-03    9.3065210938e+04
    7.7498950996e-03    9.2924531250e+04
    7.7597768977e-03    9.2792539062e+04
    7.7699054964e-03    9.2659632812e+04
    7.7797863632e-03    9.2528664062e+04
    7.7899149619e-03    9.2390101562e+04
    7.7997962944e-03    9.2250062500e+04
    7.8099239618e-03    9.2103585938e+04
    7.8198052943e-03    9.1961382812e+04
    7.8299324960e-03    9.1819851562e+04
    7.8398138285e-03    9.1687812500e+04
    7.8499410301e-03    9.1558531250e+04
    7.8598214313e-03    9.1435960938e+04
    7.8699486330e-03    9.1309773438e+04
    7.8798290342e-03    9.1182156250e+04
    7.8899553046e-03    9.1045250000e+04
    7.8998357058e-03    9.0908085938e+04
    7.9099619761e-03    9.0768804688e+04
    7.9198414460e-03    9.0638718750e+04
    7.9299686477e-03    9.0513164062e+04
    7.9398481175e-03    9.0396507812e+04
    7.9499743879e-03    9.0278156250e+04
    7.9598529264e-03    9.0158781250e+04
    7.9699791968e-03    9.0029726562e+04
    7.9798577353e-03    8.9898976562e+04
    7.9899840057e-03    8.9765132812e+04
    7.9998616129e-03    8.9639851562e+04
    8.0099878833e-03    8.9519414062e+04
    8.0198664218e-03    8.9408054688e+04
    8.0299926922e-03    8.9295218750e+04
    8.0398730934e-03    8.9181101562e+04
    8.0497534946e-03    8.9060554688e+04
    8.0598797649e-03    8.8932335938e+04
    8.0697583035e-03    8.8807789062e+04
    8.0798836425e-03    8.8685976562e+04
    8.0897612497e-03    8.8574906250e+04
    8.0998875201e-03    8.8466648438e+04
    8.1097660586e-03    8.8360929688e+04
    8.1198932603e-03    8.8247148438e+04
    8.1297745928e-03    8.8129695312e+04
    8.1399017945e-03    8.8006460938e+04
    8.1497812644e-03    8.7889148438e+04
    8.1599084660e-03    8.7776039062e+04
    8.1697879359e-03    8.7672664062e+04
    8.1799142063e-03    8.7569460938e+04
    8.1897927448e-03    8.7465585938e+04
    8.1999190152e-03    8.7352539062e+04
    8.2097975537e-03    8.7237804688e+04
    8.2199238241e-03    8.7121296875e+04
    8.2298023626e-03    8.7013476562e+04
    8.2399277017e-03    8.6910046875e+04
    8.2498053089e-03    8.6812882812e+04
    8.2599297166e-03    8.6711515625e+04
    8.2698063925e-03    8.6606953125e+04
    8.2799308002e-03    8.6494789062e+04
    8.2898065448e-03    8.6385468750e+04
    8.2999300212e-03    8.6278726562e+04
    8.3098076284e-03    8.6181195312e+04
    8.3199320361e-03    8.6085039062e+04
    8.3298115060e-03    8.5989812500e+04
    8.3399387076e-03    8.5886835938e+04
    8.3498172462e-03    8.5781929688e+04
    8.3599425852e-03    8.5674796875e+04
    8.3698201925e-03    8.5575343750e+04
    8.3799446002e-03    8.5479554688e+04
    8.3898222074e-03    8.5388914062e+04
    8.3999456838e-03    8.5293976562e+04
    8.4098251536e-03    8.5196640625e+04
    8.4199514240e-03    8.5093539062e+04
    8.4298308939e-03    8.4994093750e+04
    8.4399562329e-03    8.4897257812e+04
    8.4498347715e-03    8.4807890625e+04
    8.4599601105e-03    8.4717812500e+04
    8.4698377177e-03    8.4627234375e+04
    8.4799630567e-03    8.4530210938e+04
    8.4898406640e-03    8.4433898438e+04
    8.4999650717e-03    8.4337718750e+04
    8.5098426789e-03    8.4248585938e+04
    8.5199670866e-03    8.4160718750e+04
    8.5298437625e-03    8.4074765625e+04
    8.5399672389e-03    8.3983406250e+04
    8.5498439148e-03    8.3891570312e+04
    8.5599673912e-03    8.3797968750e+04
    8.5698440671e-03    8.3709929688e+04
    8.5799666122e-03    8.3623414062e+04
    8.5898432881e-03    8.3540382812e+04
    8.5999676958e-03    8.3453585938e+04
    8.6098443717e-03    8.3366328125e+04
    8.6199669167e-03    8.3276148438e+04
    8.6298454553e-03    8.3190031250e+04
    8.6399735883e-03    8.3104921875e+04
    8.6498567834e-03    8.3024007812e+04
    8.6599858478e-03    8.2940820312e+04
    8.6698690429e-03    8.2857640625e+04
    8.6797550321e-03    8.2773000000e+04
    8.6898943409e-03    8.2687109375e+04
    8.6997896433e-03    8.2605968750e+04
    8.7099326774e-03    8.2525125000e+04
    8.7198317051e-03    8.2446515625e+04
    8.7299849838e-03    8.2364250000e+04
    8.7398979813e-03    8.2282476562e+04
    8.7498184294e-03    8.2201421875e+04
    8.7599894032e-03    8.2120617188e+04
    8.7699191645e-03    8.2043554688e+04
    8.7798563763e-03    8.1966960938e+04
    8.7898019701e-03    8.1889531250e+04
    8.7997531518e-03    8.1811179688e+04
    8.8099623099e-03    8.1731054688e+04
    8.8199293241e-03    8.1654046875e+04
    8.8299000636e-03    8.1578476562e+04
    8.8398801163e-03    8.1503804688e+04
    8.8498676196e-03    8.1428554688e+04
    8.8598662987e-03    8.1352195312e+04
    8.8698714972e-03    8.1275890625e+04
    8.8798776269e-03    8.1200945312e+04
    8.8898912072e-03    8.1127476562e+04
    8.8999141008e-03    8.1054562500e+04
    8.9099481702e-03    8.0981343750e+04
    8.9199878275e-03    8.0907984375e+04
    8.9297806844e-03    8.0836945312e+04
    8.9398249984e-03    8.0764585938e+04
    8.9498823509e-03    8.0693101562e+04
    8.9599480852e-03    8.0622492188e+04
    8.9697688818e-03    8.0553492188e+04
    8.9798448607e-03    8.0482515625e+04
    8.9899236336e-03    8.0411664062e+04
    8.9997574687e-03    8.0343437500e+04
    9.0098548681e-03    8.0274296875e+04
    9.0199606493e-03    8.0205148438e+04
    9.0298159048e-03    8.0137867188e+04
    9.0399291366e-03    8.0069250000e+04
    9.0497899801e-03    8.0002570312e+04
    9.0599143878e-03    7.9934593750e+04
    9.0697938576e-03    7.9869054688e+04
    9.0799322352e-03    7.9802320312e+04
    9.0898210183e-03    7.9737281250e+04
    9.0999687091e-03    7.9670468750e+04
    9.1098668054e-03    7.9605875000e+04
    9.1197732836e-03    7.9541875000e+04
    9.1299423948e-03    7.9476343750e+04
    9.1398581862e-03    7.9412898438e+04
    9.1497777030e-03    7.9349906250e+04
    9.1599570587e-03    7.9285390625e+04
    9.1698868200e-03    7.9222671875e+04
    9.1798268259e-03    7.9160445312e+04
    9.1897742823e-03    7.9098789062e+04
    9.1999750584e-03    7.9035710938e+04
    9.2099253088e-03    7.8974492188e+04
    9.2198839411e-03    7.8913703125e+04
    9.2298462987e-03    7.8853062500e+04
    9.2398179695e-03    7.8792609375e+04
    9.2497877777e-03    7.8732601562e+04
    9.2597594485e-03    7.8672921875e+04
    9.2699928209e-03    7.8611789062e+04
    9.2799821869e-03    7.8552570312e+04
    9.2899762094e-03    7.8493945312e+04
    9.2999776825e-03    7.8435632812e+04
    9.3099763617e-03    7.8377726562e+04
    9.3199769035e-03    7.8320328125e+04
    9.3299886212e-03    7.8263156250e+04
    9.3397498131e-03    7.8207617188e+04
    9.3497699127e-03    7.8151007812e+04
    9.3597946689e-03    7.8094656250e+04
    9.3698156998e-03    7.8038484375e+04
    9.3798385933e-03    7.7982640625e+04
    9.3898801133e-03    7.7927062500e+04
    9.3999234959e-03    7.7871656250e+04
    9.4099724665e-03    7.7816546875e+04
    9.4197643921e-03    7.7763226562e+04
    9.4298133627e-03    7.7708781250e+04
    9.4398641959e-03    7.7654656250e+04
    9.4499317929e-03    7.7600835938e+04
    9.4599975273e-03    7.7547273438e+04
    9.4698118046e-03    7.7495359375e+04
    9.4798859209e-03    7.7442554688e+04
    9.4899609685e-03    7.7390125000e+04
    9.4997817650e-03    7.7339257812e+04
    9.5098745078e-03    7.7287250000e+04
    9.5199607313e-03    7.7235546875e+04
    9.5297954977e-03    7.7185492188e+04
    9.5398966223e-03    7.7134523438e+04
    9.5499940217e-03    7.7083843750e+04
    9.5598446205e-03    7.7034531250e+04
    9.5699606463e-03    7.6984085938e+04
    9.5798093826e-03    7.6935250000e+04
    9.5899254084e-03    7.6885382812e+04
    9.5997937024e-03    7.6837046875e+04
    9.6099162474e-03    7.6787757812e+04
    9.6197901294e-03    7.6740031250e+04
    9.6299266443e-03    7.6691492188e+04
    9.6398005262e-03    7.6644632812e+04
    9.6499389037e-03    7.6596828125e+04
    9.6598314121e-03    7.6550421875e+04
    9.6699791029e-03    7.6502960938e+04
    9.6798744053e-03    7.6456820312e+04
    9.6897706389e-03    7.6410875000e+04
    9.6999276429e-03    7.6364000000e+04
    9.7098313272e-03    7.6318671875e+04
    9.7197443247e-03    7.6273718750e+04
    9.7299134359e-03    7.6227960938e+04
    9.7398255020e-03    7.6183601562e+04
    9.7497403622e-03    7.6139445312e+04
    9.7599150613e-03    7.6094367188e+04
    9.7698410973e-03    7.6050687500e+04
    9.7797727212e-03    7.6007281250e+04
    9.7899623215e-03    7.5962992188e+04
    9.7998948768e-03    7.5920031250e+04
    9.8098283634e-03    7.5877312500e+04
    9.8197562620e-03    7.5834929688e+04
    9.8299607635e-03    7.5791757812e+04
    9.8399128765e-03    7.5749968750e+04
    9.8498659208e-03    7.5708359375e+04
    9.8598226905e-03    7.5666898438e+04
    9.8697794601e-03    7.5625671875e+04
    9.8799914122e-03    7.5583742188e+04
    9.8899491131e-03    7.5543203125e+04
    9.8999142647e-03    7.5502898438e+04
    9.9098794162e-03    7.5462781250e+04
    9.9198557436e-03    7.5422835938e+04
    9.9298330024e-03    7.5383140625e+04
    9.9398102611e-03    7.5343710938e+04
    9.9497893825e-03    7.5304523438e+04
    9.9597694352e-03    7.5265570312e+04
    9.9697504193e-03    7.5226851562e+04
    9.9797425792e-03    7.5188359375e+04
    9.9900001660e-03    7.5149132812e+04
    9.9999960512e-03    7.5111218750e+04
    1.0009996593e-02    7.5073578125e+04
    1.0019998066e-02    7.5036140625e+04
    1.0029999539e-02    7.4998851562e+04
    1.0039742105e-02    7.4962695312e+04
    1.0049752891e-02    7.4925820312e+04
    1.0059766471e-02    7.4889289062e+04
    1.0069785640e-02    7.4853078125e+04
    1.0079804808e-02    7.4817085938e+04
    1.0089827701e-02    7.4781203125e+04
    1.0099852458e-02    7.4745437500e+04
    1.0109880939e-02    7.4709914062e+04
    1.0119910352e-02    7.4674726562e+04
    1.0129944421e-02    7.4639851562e+04
    1.0139983147e-02    7.4605210938e+04
    1.0149761103e-02    7.4571617188e+04
    1.0159805417e-02    7.4537289062e+04
    1.0169850662e-02    7.4503195312e+04
    1.0179899633e-02    7.4469375000e+04
    1.0189948604e-02    7.4435796875e+04
    1.0199999437e-02    7.4402421875e+04
    1.0209791362e-02    7.4370125000e+04
    1.0219852440e-02    7.4337210938e+04
    1.0229917243e-02    7.4304562500e+04
    1.0239982046e-02    7.4272171875e+04
    1.0249784216e-02    7.4240812500e+04
    1.0259855539e-02    7.4208773438e+04
    1.0269927792e-02    7.4176929688e+04
    1.0279738344e-02    7.4146101562e+04
    1.0289819911e-02    7.4114671875e+04
    1.0299905203e-02    7.4083507812e+04
    1.0309992358e-02    7.4052601562e+04
    1.0319813155e-02    7.4022695312e+04
    1.0329900309e-02    7.3992132812e+04
    1.0339991190e-02    7.3961773438e+04
    1.0349820368e-02    7.3932484375e+04
    1.0359918699e-02    7.3902671875e+04
    1.0369756259e-02    7.3873820312e+04
    1.0379863903e-02    7.3844296875e+04
    1.0389971547e-02    7.3814937500e+04
    1.0399812832e-02    7.3786609375e+04
    1.0409922339e-02    7.3757804688e+04
    1.0419770144e-02    7.3729976562e+04
    1.0429889895e-02    7.3701546875e+04
    1.0439747013e-02    7.3674039062e+04
    1.0449871421e-02    7.3646007812e+04
    1.0459999554e-02    7.3618218750e+04
    1.0469860397e-02    7.3591359375e+04
    1.0479987599e-02    7.3563976562e+04
    1.0489852168e-02    7.3537515625e+04
    1.0499990545e-02    7.3510531250e+04
    1.0509864427e-02    7.3484437500e+04
    1.0519741103e-02    7.3458531250e+04
    1.0529886931e-02    7.3432140625e+04
    1.0539768264e-02    7.3406656250e+04
    1.0549917817e-02    7.3380679688e+04
    1.0559801012e-02    7.3355570312e+04
    1.0569955222e-02    7.3329960938e+04
    1.0579848662e-02    7.3305218750e+04
    1.0589744896e-02    7.3280679688e+04
    1.0599910282e-02    7.3255695312e+04
    1.0609808378e-02    7.3231554688e+04
    1.0619977489e-02    7.3206953125e+04
    1.0629883036e-02    7.3183218750e+04
    1.0639788583e-02    7.3159726562e+04
    1.0649965145e-02    7.3135812500e+04
    1.0659880005e-02    7.3112632812e+04
    1.0669797659e-02    7.3089546875e+04
    1.0679983534e-02    7.3066031250e+04
    1.0689904913e-02    7.3043406250e+04
    1.0699829087e-02    7.3021070312e+04
    1.0709756054e-02    7.2998906250e+04
    1.0719954967e-02    7.2976210938e+04
    1.0729887523e-02    7.2954218750e+04
    1.0739823803e-02    7.2932453125e+04
    1.0749764740e-02    7.2910960938e+04
    1.0759973899e-02    7.2889109375e+04
    1.0769915767e-02    7.2867953125e+04
    1.0779864155e-02    7.2846906250e+04
    1.0789815336e-02    7.2826062500e+04
    1.0799767449e-02    7.2805453125e+04
    1.0809992440e-02    7.2784500000e+04
    1.0819952935e-02    7.2764265625e+04
    1.0829916224e-02    7.2744187500e+04
    1.0839878581e-02    7.2724312500e+04
    1.0849842802e-02    7.2704648438e+04
    1.0859814472e-02    7.2685203125e+04
    1.0869789869e-02    7.2665945312e+04
    1.0879765265e-02    7.2646859375e+04
    1.0889745317e-02    7.2627875000e+04
    1.0899730958e-02    7.2608984375e+04
    1.0909990408e-02    7.2589742188e+04
    1.0919982567e-02    7.2571242188e+04
    1.0929976590e-02    7.2553007812e+04
    1.0939972475e-02    7.2534984375e+04
    1.0949971154e-02    7.2517078125e+04
    1.0959966108e-02    7.2499289062e+04
    1.0969963856e-02    7.2481632812e+04
    1.0979969054e-02    7.2464187500e+04
    1.0989977978e-02    7.2446976562e+04
    1.0999992490e-02    7.2429945312e+04
    1.1009742506e-02    7.2413539062e+04
    1.1019768193e-02    7.2396835938e+04
    1.1029794812e-02    7.2380335938e+04
    1.1039822362e-02    7.2364039062e+04
    1.1049848050e-02    7.2347890625e+04
    1.1059872806e-02    7.2331875000e+04
    1.1069897562e-02    7.2316000000e+04
    1.1079921387e-02    7.2300296875e+04
    1.1089944281e-02    7.2284789062e+04
    1.1099967174e-02    7.2269445312e+04
    1.1109989136e-02    7.2254250000e+04
    1.1119741015e-02    7.2239640625e+04
    1.1129762046e-02    7.2224820312e+04
    1.1139781214e-02    7.2210226562e+04
    1.1149801314e-02    7.2195828125e+04
    1.1159822345e-02    7.2181632812e+04
    1.1169845238e-02    7.2167601562e+04
    1.1179871857e-02    7.2153695312e+04
    1.1189899407e-02    7.2139898438e+04
    1.1199926957e-02    7.2126250000e+04
    1.1209953576e-02    7.2112820312e+04
    1.1219980195e-02    7.2099656250e+04
    1.1229733936e-02    7.2087046875e+04
    1.1239757761e-02    7.2074210938e+04
    1.1249780655e-02    7.2061421875e+04
    1.1259802617e-02    7.2048734375e+04
    1.1269825511e-02    7.2036242188e+04
    1.1279848404e-02    7.2023984375e+04
    1.1289871298e-02    7.2011906250e+04
    1.1299896054e-02    7.1999960938e+04
    1.1309919879e-02    7.1988179688e+04
    1.1319942772e-02    7.1976601562e+04
    1.1329964735e-02    7.1965234375e+04
    1.1339985766e-02    7.1954023438e+04
    1.1349734850e-02    7.1943265625e+04
    1.1359754950e-02    7.1932375000e+04
    1.1369775049e-02    7.1921656250e+04
    1.1379795149e-02    7.1911085938e+04
    1.1389816180e-02    7.1900640625e+04
    1.1399837211e-02    7.1890343750e+04
    1.1409856379e-02    7.1880234375e+04
    1.1419874616e-02    7.1870304688e+04
    1.1429891922e-02    7.1860523438e+04
    1.1439909227e-02    7.1850890625e+04
    1.1449926533e-02    7.1841437500e+04
    1.1459943838e-02    7.1832195312e+04
    1.1469962075e-02    7.1823132812e+04
    1.1479978450e-02    7.1814187500e+04
    1.1489993893e-02    7.1805335938e+04
    1.1499738321e-02    7.1796867188e+04
    1.1509752832e-02    7.1788367188e+04
    1.1519767344e-02    7.1780109375e+04
    1.1529780924e-02    7.1772031250e+04
    1.1539795436e-02    7.1764039062e+04
    1.1549809016e-02    7.1756148438e+04
    1.1559821665e-02    7.1748421875e+04
    1.1569833383e-02    7.1740921875e+04
    1.1579844169e-02    7.1733585938e+04
    1.1589854956e-02    7.1726343750e+04
    1.1599865742e-02    7.1719210938e+04
    1.1609876528e-02    7.1712273438e+04
    1.1619887315e-02    7.1705539062e+04
    1.1629897170e-02    7.1698968750e+04
    1.1639906093e-02    7.1692515625e+04
    1.1649915017e-02    7.1686226562e+04
    1.1659923010e-02    7.1680109375e+04
    1.1669931002e-02    7.1674171875e+04
    1.1679939926e-02    7.1668390625e+04
    1.1689950712e-02    7.1662742188e+04
    1.1699960567e-02    7.1657242188e+04
    1.1709968559e-02    7.1651882812e+04
    1.1719977483e-02    7.1646671875e+04
    1.1729986407e-02    7.1641648438e+04
    1.1739994399e-02    7.1636812500e+04
    1.1749733239e-02    7.1632257812e+04
    1.1759743094e-02    7.1627671875e+04
    1.1769756675e-02    7.1623195312e+04
    1.1779773980e-02    7.1618882812e+04
    1.1789792217e-02    7.1614796875e+04
    1.1799808592e-02    7.1610929688e+04
    1.1809824035e-02    7.1607195312e+04
    1.1819836684e-02    7.1603539062e+04
    1.1829849333e-02    7.1599984375e+04
    1.1839861050e-02    7.1596609375e+04
    1.1849871837e-02    7.1593476562e+04
    1.1859882623e-02    7.1590546875e+04
    1.1869893409e-02    7.1587718750e+04
    1.1879905127e-02    7.1584921875e+04
    1.1889917776e-02    7.1582171875e+04
    1.1899931356e-02    7.1579601562e+04
    1.1909944937e-02    7.1577312500e+04
    1.1919957586e-02    7.1575273438e+04
    1.1929969303e-02    7.1573359375e+04
    1.1939980090e-02    7.1571523438e+04
    1.1949990876e-02    7.1569820312e+04
    1.1959999800e-02    7.1568328125e+04
    1.1969738640e-02    7.1567070312e+04
    1.1979746632e-02    7.1565875000e+04
    1.1989754625e-02    7.1564726562e+04
    1.1999762617e-02    7.1563695312e+04
    1.2009769678e-02    7.1562843750e+04
    1.2019776739e-02    7.1562171875e+04
    1.2029782869e-02    7.1561640625e+04
    1.2039788067e-02    7.1561226562e+04
    1.2049793266e-02    7.1560984375e+04
    1.2059797533e-02    7.1560914062e+04
    1.2069801800e-02    7.1561000000e+04
    1.2079805136e-02    7.1561250000e+04
    1.2089808472e-02    7.1561695312e+04
    1.2099810876e-02    7.1562343750e+04
    1.2109813280e-02    7.1563148438e+04
    1.2119814754e-02    7.1564062500e+04
    1.2129815295e-02    7.1565054688e+04
    1.2139815837e-02    7.1566164062e+04
    1.2149816379e-02    7.1567429688e+04
    1.2159815989e-02    7.1568875000e+04
    1.2169814669e-02    7.1570531250e+04
    1.2179813348e-02    7.1572328125e+04
    1.2189812027e-02    7.1574148438e+04
    1.2199822813e-02    7.1576031250e+04
    1.2209852226e-02    7.1578195312e+04
    1.2219903991e-02    7.1580750000e+04
    1.2229980901e-02    7.1583468750e+04
    1.2239813805e-02    7.1586023438e+04
    1.2249953113e-02    7.1588664062e+04
    1.2259850278e-02    7.1591578125e+04
    1.2269778177e-02    7.1594867188e+04
    1.2279729359e-02    7.1598195312e+04
    1.2289975770e-02    7.1601437500e+04
    1.2299958616e-02    7.1604671875e+04
    1.2309952639e-02    7.1608414062e+04
    1.2319955043e-02    7.1612656250e+04
    1.2329967692e-02    7.1616984375e+04
    1.2339994311e-02    7.1621015625e+04
    1.2349768542e-02    7.1624734375e+04
    1.2359859422e-02    7.1628820312e+04
    1.2369719334e-02    7.1633382812e+04
    1.2379918247e-02    7.1638617188e+04
    1.2389891781e-02    7.1643890625e+04
    1.2399915606e-02    7.1649031250e+04
    1.2409982271e-02    7.1653984375e+04
    1.2419793755e-02    7.1658789062e+04
    1.2429914437e-02    7.1663992188e+04
    1.2439755723e-02    7.1669406250e+04
    1.2449895963e-02    7.1675367188e+04
    1.2459752150e-02    7.1681429688e+04
    1.2469896115e-02    7.1687867188e+04
    1.2479755096e-02    7.1694210938e+04
    1.2489920482e-02    7.1700757812e+04
    1.2499819510e-02    7.1707125000e+04
    1.2509746477e-02    7.1713578125e+04
    1.2519996613e-02    7.1720406250e+04
    1.2529983185e-02    7.1727226562e+04
    1.2539997697e-02    7.1734187500e+04
    1.2549747713e-02    7.1741093750e+04
    1.2559826486e-02    7.1748468750e+04
    1.2569935992e-02    7.1756156250e+04
    1.2579771690e-02    7.1763851562e+04
    1.2589923106e-02    7.1771921875e+04
    1.2599781156e-02    7.1779859375e+04
    1.2609940022e-02    7.1788171875e+04
    1.2619803660e-02    7.1796382812e+04
    1.2629966252e-02    7.1804992188e+04
    1.2639829889e-02    7.1813492188e+04
    1.2649700977e-02    7.1822156250e+04
    1.2659895234e-02    7.1831257812e+04
    1.2669820338e-02    7.1840257812e+04
    1.2679773383e-02    7.1849414062e+04
    1.2689748779e-02    7.1858726562e+04
    1.2699740939e-02    7.1868187500e+04
    1.2709754519e-02    7.1877820312e+04
    1.2719810009e-02    7.1887656250e+04
    1.2729946524e-02    7.1897781250e+04
    1.2739899568e-02    7.1907890625e+04
    1.2749695219e-02    7.1917937500e+04
    1.2759990990e-02    7.1928593750e+04
    1.2769822031e-02    7.1938906250e+04
    1.2779830955e-02    7.1949609375e+04
    1.2789673172e-02    7.1960343750e+04
    1.2799678370e-02    7.1971398438e+04
    1.2809843756e-02    7.1982757812e+04
    1.2819807045e-02    7.1994039062e+04
    1.2829912826e-02    7.2005648438e+04
    1.2839792296e-02    7.2017156250e+04
    1.2849801220e-02    7.2028937500e+04
    1.2859937735e-02    7.2041007812e+04
    1.2869819067e-02    7.2052945312e+04
    1.2879815884e-02    7.2065226562e+04
    1.2889928184e-02    7.2077867188e+04
    1.2899759226e-02    7.2090359375e+04
    1.2909695506e-02    7.2103179688e+04
    1.2919737957e-02    7.2116289062e+04
    1.2929884717e-02    7.2129617188e+04
    1.2939723209e-02    7.2142585938e+04
    1.2949658558e-02    7.2155765625e+04
    1.2959686108e-02    7.2169210938e+04
    1.2969803996e-02    7.2182953125e+04
    1.2979589403e-02    7.2196421875e+04
    1.2989891693e-02    7.2210789062e+04
    1.2999853119e-02    7.2224867188e+04
    1.3009898365e-02    7.2239281250e+04
    1.3019582257e-02    7.2253421875e+04
    1.3029782102e-02    7.2268562500e+04
    1.3039609417e-02    7.2283257812e+04
    1.3049954548e-02    7.2298710938e+04
    1.3059905730e-02    7.2313585938e+04
    1.3069903478e-02    7.2328695312e+04
    1.3079939410e-02    7.2344187500e+04
    1.3089546934e-02    7.2359367188e+04
    1.3099647127e-02    7.2375562500e+04
    1.3109782711e-02    7.2391898438e+04
    1.3119965792e-02    7.2408343750e+04
    1.3129711151e-02    7.2424148438e+04
    1.3139955699e-02    7.2440875000e+04
    1.3149771839e-02    7.2457125000e+04
    1.3159635477e-02    7.2473687500e+04
    1.3169994578e-02    7.2491421875e+04
    1.3179923408e-02    7.2508625000e+04
    1.3189906254e-02    7.2525929688e+04
    1.3199911453e-02    7.2543289062e+04
    1.3209957629e-02    7.2560828125e+04
    1.3219539076e-02    7.2577796875e+04
    1.3229641132e-02    7.2596054688e+04
    1.3239823282e-02    7.2614671875e+04
    1.3249490410e-02    7.2632515625e+04
    1.3259722851e-02    7.2651406250e+04
    1.3269995339e-02    7.2670492188e+04
    1.3279767707e-02    7.2688882812e+04
    1.3289611787e-02    7.2707679688e+04
    1.3299955986e-02    7.2727625000e+04
    1.3309849426e-02    7.2746851562e+04
    1.3319787569e-02    7.2766179688e+04
    1.3329711743e-02    7.2785726562e+04
    1.3339747675e-02    7.2805656250e+04
    1.3349762186e-02    7.2825898438e+04
    1.3359756209e-02    7.2846289062e+04
    1.3369826600e-02    7.2866804688e+04
    1.3379964046e-02    7.2887679688e+04
    1.3389593922e-02    7.2907687500e+04
    1.3399759308e-02    7.2929023438e+04
    1.3409961015e-02    7.2950726562e+04
    1.3419612311e-02    7.2971484375e+04
    1.3429836370e-02    7.2993414062e+04
    1.3439628296e-02    7.3014585938e+04
    1.3449972495e-02    7.3037304688e+04
    1.3459751382e-02    7.3059171875e+04
    1.3469613157e-02    7.3081148438e+04
    1.3479481451e-02    7.3103304688e+04
    1.3489943929e-02    7.3126976562e+04
    1.3499929570e-02    7.3149796875e+04
    1.3509853743e-02    7.3172843750e+04
    1.3519787230e-02    7.3196007812e+04
    1.3529763557e-02    7.3219359375e+04
    1.3539737090e-02    7.3242984375e+04
    1.3549800031e-02    7.3266929688e+04
    1.3559869491e-02    7.3291187500e+04
    1.3569966890e-02    7.3315632812e+04
    1.3579488732e-02    7.3338953125e+04
    1.3589665294e-02    7.3364000000e+04
    1.3599832542e-02    7.3389281250e+04
    1.3609932736e-02    7.3414757812e+04
    1.3619635254e-02    7.3439132812e+04
    1.3629772700e-02    7.3465148438e+04
    1.3639523648e-02    7.3490078125e+04
    1.3649710454e-02    7.3516695312e+04
    1.3659978285e-02    7.3543625000e+04
    1.3669728301e-02    7.3569226562e+04
    1.3679563068e-02    7.3595078125e+04
    1.3689829037e-02    7.3622648438e+04
    1.3699635863e-02    7.3648937500e+04
    1.3709972613e-02    7.3677000000e+04
    1.3719703071e-02    7.3703632812e+04
    1.3729928061e-02    7.3731812500e+04
    1.3739521615e-02    7.3758460938e+04
    1.3749499805e-02    7.3786453125e+04
    1.3759782538e-02    7.3815585938e+04
    1.3769792393e-02    7.3844234375e+04
    1.3779989444e-02    7.3873710938e+04
    1.3789879158e-02    7.3902570312e+04
    1.3799916022e-02    7.3932125000e+04
    1.3809635304e-02    7.3960968750e+04
    1.3819885440e-02    7.3991609375e+04
    1.3829776086e-02    7.4021382812e+04
    1.3839708641e-02    7.4051460938e+04
    1.3849645853e-02    7.4081718750e+04
    1.3859911822e-02    7.4113148438e+04
    1.3869733550e-02    7.4143390625e+04
    1.3879773207e-02    7.4174507812e+04
    1.3889939524e-02    7.4206257812e+04
    1.3899846002e-02    7.4237468750e+04
    1.3909986243e-02    7.4269718750e+04
    1.3919940218e-02    7.4301671875e+04
    1.3929813169e-02    7.4333656250e+04
    1.3939869590e-02    7.4366546875e+04
    1.3949923217e-02    7.4399781250e+04
    1.3959850185e-02    7.4442765625e+04
    1.3969942927e-02    7.7171460938e+04
    1.3979976065e-02    1.0717038281e+05
    1.3989887200e-02    1.0649105469e+05
    1.3999875635e-02    1.0640396094e+05
    1.4009940438e-02    1.0634553125e+05
    1.4019974507e-02    1.0627746094e+05
    1.4029948972e-02    1.0621014844e+05
    1.4039912261e-02    1.0614289844e+05
    1.4049955644e-02    1.0607461719e+05
    1.4059885405e-02    1.0600716406e+05
    1.4069894329e-02    1.0593897656e+05
    1.4079946093e-02    1.0587053906e+05
    1.4089986682e-02    1.0580239844e+05
    1.4099978842e-02    1.0573446094e+05
    1.4109879732e-02    1.0566719531e+05
    1.4119896106e-02    1.0559935156e+05
    1.4129994437e-02    1.0553093750e+05
    1.4139948413e-02    1.0546377344e+05
    1.4149957336e-02    1.0539553906e+05
    1.4159806073e-02    1.0533068750e+05
    1.4169930480e-02    1.0526158594e+05
    1.4179883525e-02    1.0519481250e+05
    1.4189872891e-02    1.0512866406e+05
    1.4199899510e-02    1.0506197656e+05
    1.4209970832e-02    1.0499349219e+05
    1.4219843782e-02    1.0492862500e+05
    1.4229977503e-02    1.0486203125e+05
    1.4239911921e-02    1.0479658594e+05
    1.4249883592e-02    1.0472950781e+05
    1.4259863645e-02    1.0466571094e+05
    1.4269890264e-02    1.0459903906e+05
    1.4279920608e-02    1.0453410156e+05
    1.4289995655e-02    1.0446835156e+05
    1.4299841598e-02    1.0440460156e+05
    1.4309957623e-02    1.0433927344e+05
    1.4319835231e-02    1.0427564844e+05
    1.4329995960e-02    1.0421043750e+05
    1.4339926653e-02    1.0414682031e+05
    1.4349864796e-02    1.0408330469e+05
    1.4359841123e-02    1.0401972656e+05
    1.4369826764e-02    1.0395638281e+05
    1.4379836619e-02    1.0389291406e+05
    1.4389855787e-02    1.0382953906e+05
    1.4399921522e-02    1.0376621094e+05
    1.4409971423e-02    1.0370314844e+05
    1.4419826679e-02    1.0364181250e+05
    1.4429942705e-02    1.0357905469e+05
    1.4439820312e-02    1.0351802344e+05
    1.4449957758e-02    1.0345527344e+05
    1.4459894970e-02    1.0339381250e+05
    1.4469829388e-02    1.0333241406e+05
    1.4479773119e-02    1.0327131250e+05
    1.4489996247e-02    1.0320885156e+05
    1.4499976300e-02    1.0314828906e+05
    1.4509964734e-02    1.0308797656e+05
    1.4519995078e-02    1.0302759375e+05
    1.4529783279e-02    1.0296852344e+05
    1.4539814554e-02    1.0290814844e+05
    1.4549880289e-02    1.0284839844e+05
    1.4559959993e-02    1.0278738281e+05
    1.4569782652e-02    1.0272853906e+05
    1.4579885639e-02    1.0266980469e+05
    1.4589766972e-02    1.0261172656e+05
    1.4599870890e-02    1.0255118750e+05
    1.4609993435e-02    1.0249222656e+05
    1.4619909227e-02    1.0243503906e+05
    1.4629817568e-02    1.0237637500e+05
    1.4639974572e-02    1.0231711719e+05
    1.4649918303e-02    1.0226066406e+05
    1.4659861103e-02    1.0220266406e+05
    1.4669817872e-02    1.0214558594e+05
    1.4679796062e-02    1.0208842969e+05
    1.4689775184e-02    1.0203137500e+05
    1.4699997380e-02    1.0197327344e+05
    1.4709764160e-02    1.0191785156e+05
    1.4719783328e-02    1.0186125781e+05
    1.4729789458e-02    1.0180486719e+05
    1.4739814214e-02    1.0174868750e+05
    1.4749864116e-02    1.0169246094e+05
    1.4759914950e-02    1.0163644531e+05
    1.4769968577e-02    1.0158062500e+05
    1.4779794961e-02    1.0152616406e+05
    1.4789872803e-02    1.0147063281e+05
    1.4799965546e-02    1.0141514844e+05
    1.4809821732e-02    1.0136113281e+05
    1.4819927514e-02    1.0130608594e+05
    1.4829788357e-02    1.0125253906e+05
    1.4839919284e-02    1.0119761719e+05
    1.4849809930e-02    1.0114414844e+05
    1.4859943651e-02    1.0108958594e+05
    1.4869841747e-02    1.0103644531e+05
    1.4879756607e-02    1.0098327344e+05
    1.4889924787e-02    1.0092909375e+05
    1.4899845235e-02    1.0087677344e+05
    1.4909772202e-02    1.0082390625e+05
    1.4919961803e-02    1.0076993750e+05
    1.4929912984e-02    1.0071843750e+05
    1.4939870685e-02    1.0066618750e+05
    1.4949828386e-02    1.0061388281e+05
    1.4959792607e-02    1.0056256250e+05
    1.4969773591e-02    1.0051182031e+05
    1.4979759231e-02    1.0045949219e+05
    1.4989996329e-02    1.0040646094e+05
    1.4999989420e-02    1.0035613281e+05
    1.5009992756e-02    1.0030490625e+05
    1.5019758604e-02    1.0025409375e+05
    1.5029772185e-02    1.0020385156e+05
    1.5039788559e-02    1.0015371875e+05
    1.5049817972e-02    1.0010246875e+05
    1.5059856698e-02    1.0005224219e+05
    1.5069900081e-02    1.0000221094e+05
    1.5079940669e-02    9.9952375000e+04
    1.5089988708e-02    9.9902195312e+04
    1.5099800192e-02    9.9853960938e+04
    1.5109868720e-02    9.9804218750e+04
    1.5119938180e-02    9.9754789062e+04
    1.5129752457e-02    9.9706789062e+04
    1.5139834024e-02    9.9657679688e+04
    1.5149925835e-02    9.9608664062e+04
    1.5159763396e-02    9.9561023438e+04
    1.5169856139e-02    9.9512250000e+04
    1.5179948881e-02    9.9463585938e+04
    1.5189806931e-02    9.9416218750e+04
    1.5199922025e-02    9.9367835938e+04
    1.5209781937e-02    9.9320867188e+04
    1.5219902620e-02    9.9272867188e+04
    1.5229776502e-02    9.9226187500e+04
    1.5239911154e-02    9.9178445312e+04
    1.5249790624e-02    9.9132187500e+04
    1.5259921551e-02    9.9085054688e+04
    1.5269812196e-02    9.9039242188e+04
    1.5279962681e-02    9.8992273438e+04
    1.5289865434e-02    9.8946414062e+04
    1.5299760737e-02    9.8900554688e+04
    1.5309912153e-02    9.8853851562e+04
    1.5319823287e-02    9.8808601562e+04
    1.5329993330e-02    9.8761789062e+04
    1.5339911915e-02    9.8716554688e+04
    1.5349826775e-02    9.8672507812e+04
    1.5359748155e-02    9.8627445312e+04
    1.5369932167e-02    9.8580914062e+04
    1.5379860066e-02    9.8537062500e+04
    1.5389790758e-02    9.8493289062e+04
    1.5399974771e-02    9.8447312500e+04
    1.5409908257e-02    9.8403132812e+04
    1.5419851989e-02    9.8359757812e+04
    1.5429798514e-02    9.8315718750e+04
    1.5439750627e-02    9.8271570312e+04
    1.5449960716e-02    9.8227148438e+04
    1.5459915623e-02    9.8183851562e+04
    1.5469869599e-02    9.8140242188e+04
    1.5479822643e-02    9.8097039062e+04
    1.5489775687e-02    9.8054093750e+04
    1.5499983914e-02    9.8009843750e+04
    1.5509936959e-02    9.7967125000e+04
    1.5519892797e-02    9.7924335938e+04
    1.5529849567e-02    9.7881726562e+04
    1.5539807267e-02    9.7839257812e+04
    1.5549766831e-02    9.7796960938e+04
    1.5559983440e-02    9.7753664062e+04
    1.5569944866e-02    9.7711585938e+04
    1.5579906292e-02    9.7669562500e+04
    1.5589866787e-02    9.7627656250e+04
    1.5599827282e-02    9.7585882812e+04
    1.5609787777e-02    9.7544242188e+04
    1.5619748272e-02    9.7502710938e+04
    1.5629963949e-02    9.7460179688e+04
    1.5639925376e-02    9.7418773438e+04
    1.5649884939e-02    9.7377476562e+04
    1.5659846365e-02    9.7336351562e+04
    1.5669807792e-02    9.7295382812e+04
    1.5679771081e-02    9.7254562500e+04
    1.5689987689e-02    9.7213000000e+04
    1.5699950978e-02    9.7172781250e+04
    1.5709914267e-02    9.7132085938e+04
    1.5719877556e-02    9.7090773438e+04
    1.5729842708e-02    9.7050570312e+04
    1.5739807859e-02    9.7010960938e+04
    1.5749773011e-02    9.6970445312e+04
    1.5759995207e-02    9.6930273438e+04
    1.5769962221e-02    9.6891718750e+04
    1.5779931098e-02    9.6851226562e+04
    1.5789898112e-02    9.6809898438e+04
    1.5799866989e-02    9.6769320312e+04
    1.5809835866e-02    9.6728601562e+04
    1.5819806606e-02    9.6688945312e+04
    1.5829775482e-02    9.6651789062e+04
    1.5839746222e-02    9.6615843750e+04
    1.5849972144e-02    9.6578023438e+04
    1.5859942883e-02    9.6539250000e+04
    1.5869915485e-02    9.6498257812e+04
    1.5879888088e-02    9.6455179688e+04
    1.5889860690e-02    9.6412148438e+04
    1.5899833292e-02    9.6371195312e+04
    1.5909807757e-02    9.6333070312e+04
    1.5919780359e-02    9.6298148438e+04
    1.5929752961e-02    9.6264812500e+04
    1.5939982608e-02    9.6230726562e+04
    1.5949955210e-02    9.6195773438e+04
    1.5959929675e-02    9.6158210938e+04
    1.5969902277e-02    9.6117718750e+04
    1.5979876742e-02    9.6075179688e+04
    1.5989853069e-02    9.6032226562e+04
    1.5999833122e-02    9.5990476562e+04
    1.6009818763e-02    9.5950664062e+04
    1.6019806266e-02    9.5912664062e+04
    1.6029791906e-02    9.5875898438e+04
    1.6039779410e-02    9.5839835938e+04
    1.6049763188e-02    9.5804148438e+04
    1.6059746966e-02    9.5768648438e+04
    1.6069987789e-02    9.5732273438e+04
    1.6079969704e-02    9.5696742188e+04
    1.6089955345e-02    9.5660687500e+04
    1.6099942848e-02    9.5624156250e+04
    1.6109934077e-02    9.5588562500e+04
    1.6119923443e-02    9.5553570312e+04
    1.6129912809e-02    9.5517210938e+04
    1.6139902174e-02    9.5480945312e+04
    1.6149889678e-02    9.5445312500e+04
    1.6159879044e-02    9.5407882812e+04
    1.6169870272e-02    9.5369804688e+04
    1.6179861501e-02    9.5332968750e+04
    1.6189852729e-02    9.5296343750e+04
    1.6199843958e-02    9.5259000000e+04
    1.6209835187e-02    9.5222476562e+04
    1.6219826415e-02    9.5186835938e+04
    1.6229817644e-02    9.5151007812e+04
    1.6239808872e-02    9.5115195312e+04
    1.6249800101e-02    9.5080468750e+04
    1.6259791330e-02    9.5045281250e+04
    1.6269782558e-02    9.5010210938e+04
    1.6279775649e-02    9.4975117188e+04
    1.6289766878e-02    9.4939445312e+04
    1.6299758106e-02    9.4903585938e+04
    1.6309751198e-02    9.4867414062e+04
    1.6319999471e-02    9.4830218750e+04
    1.6329990700e-02    9.4794132812e+04
    1.6339981928e-02    9.4758218750e+04
    1.6349973157e-02    9.4722648438e+04
    1.6359966248e-02    9.4687367188e+04
    1.6369959339e-02    9.4652507812e+04
    1.6379950568e-02    9.4618101562e+04
    1.6389943659e-02    9.4584187500e+04
    1.6399934888e-02    9.4550742188e+04
    1.6409927979e-02    9.4517710938e+04
    1.6419919208e-02    9.4485007812e+04
    1.6429912299e-02    9.4452601562e+04
    1.6439905390e-02    9.4420500000e+04
    1.6449898481e-02    9.4388789062e+04
    1.6459891573e-02    9.4357312500e+04
    1.6469882801e-02    9.4325289062e+04
    1.6479875892e-02    9.4292148438e+04
    1.6489868984e-02    9.4258554688e+04
    1.6499862075e-02    9.4224375000e+04
    1.6509855166e-02    9.4188382812e+04
    1.6519848257e-02    9.4152320312e+04
    1.6529839486e-02    9.4117843750e+04
    1.6539832577e-02    9.4082914062e+04
    1.6549825668e-02    9.4048273438e+04
    1.6559818760e-02    9.4015851562e+04
    1.6569811851e-02    9.3984398438e+04
    1.6579806805e-02    9.3952726562e+04
    1.6589799896e-02    9.3921648438e+04
    1.6599792987e-02    9.3890585938e+04
    1.6609786078e-02    9.3858148438e+04
    1.6619779170e-02    9.3824460938e+04
    1.6629774123e-02    9.3790085938e+04
    1.6639767215e-02    9.3755179688e+04
    1.6649760306e-02    9.3720976562e+04
    1.6659753397e-02    9.3688132812e+04
    1.6669746488e-02    9.3656320312e+04
    1.6679996625e-02    9.3624664062e+04
    1.6689989716e-02    9.3593648438e+04
    1.6699984670e-02    9.3562226562e+04
    1.6709977761e-02    9.3529898438e+04
    1.6719970852e-02    9.3496843750e+04
    1.6729965806e-02    9.3463289062e+04
    1.6739958897e-02    9.3429914062e+04
    1.6749953851e-02    9.3397226562e+04
    1.6759946942e-02    9.3365648438e+04
    1.6769940034e-02    9.3334914062e+04
    1.6779934987e-02    9.3304398438e+04
    1.6789928079e-02    9.3273304688e+04
    1.6799923033e-02    9.3241218750e+04
    1.6809916124e-02    9.3208250000e+04
    1.6819911078e-02    9.3175101562e+04
    1.6829904169e-02    9.3142789062e+04
    1.6839899123e-02    9.3111726562e+04
    1.6849894077e-02    9.3081250000e+04
    1.6859887168e-02    9.3050445312e+04
    1.6869882122e-02    9.3019335938e+04
    1.6879877076e-02    9.2987726562e+04
    1.6889870167e-02    9.2954804688e+04
    1.6899865121e-02    9.2922156250e+04
    1.6909860075e-02    9.2891664062e+04
    1.6919855028e-02    9.2861343750e+04
    1.6929848120e-02    9.2830351562e+04
    1.6939843073e-02    9.2799898438e+04
    1.6949838027e-02    9.2768960938e+04
    1.6959832981e-02    9.2736601562e+04
    1.6969827935e-02    9.2704625000e+04
    1.6979822889e-02    9.2674250000e+04
    1.6989817843e-02    9.2643789062e+04
    1.6999812797e-02    9.2613601562e+04
    1.7009807751e-02    9.2583218750e+04
    1.7019804567e-02    9.2552023438e+04
    1.7029799521e-02    9.2520585938e+04
    1.7039794475e-02    9.2489742188e+04
    1.7049789429e-02    9.2459335938e+04
    1.7059784383e-02    9.2429523438e+04
    1.7069781199e-02    9.2399257812e+04
    1.7079776153e-02    9.2368585938e+04
    1.7089772969e-02    9.2337585938e+04
    1.7099767923e-02    9.2306867188e+04
    1.7109764740e-02    9.2276742188e+04
    1.7119761556e-02    9.2247039062e+04
    1.7129758373e-02    9.2217132812e+04
    1.7139755189e-02    9.2186789062e+04
    1.7149752006e-02    9.2156187500e+04
    1.7159746960e-02    9.2125781250e+04
    1.7169743776e-02    9.2095882812e+04
    1.7179997638e-02    9.2065539062e+04
    1.7189994454e-02    9.2035898438e+04
    1.7199991271e-02    9.2005664062e+04
    1.7209988087e-02    9.1975304688e+04
    1.7219984904e-02    9.1945437500e+04
    1.7229983583e-02    9.1916023438e+04
    1.7239982262e-02    9.1886304688e+04
    1.7249979079e-02    9.1856757812e+04
    1.7259977758e-02    9.1827562500e+04
    1.7269976437e-02    9.1797273438e+04
    1.7279973254e-02    9.1767351562e+04
    1.7289971933e-02    9.1738710938e+04
    1.7299970612e-02    9.1709429688e+04
    1.7309969291e-02    9.1679312500e+04
    1.7319967970e-02    9.1649898438e+04
    1.7329966649e-02    9.1621156250e+04
    1.7339967191e-02    9.1591406250e+04
    1.7349965870e-02    9.1562148438e+04
    1.7359964550e-02    9.1533562500e+04
    1.7369965091e-02    9.1504000000e+04
    1.7379963771e-02    9.1474617188e+04
    1.7389964312e-02    9.1445906250e+04
    1.7399962991e-02    9.1416820312e+04
    1.7409963533e-02    9.1387960938e+04
    1.7419964075e-02    9.1359132812e+04
    1.7429962754e-02    9.1330007812e+04
    1.7439963296e-02    9.1301335938e+04
    1.7449963838e-02    9.1272687500e+04
    1.7459964380e-02    9.1243906250e+04
    1.7469964921e-02    9.1215367188e+04
    1.7479965463e-02    9.1186593750e+04
    1.7489966005e-02    9.1157960938e+04
    1.7499968410e-02    9.1129523438e+04
    1.7509970814e-02    9.1101039062e+04
    1.7519971356e-02    9.1072476562e+04
    1.7529973760e-02    9.1044132812e+04
    1.7539974302e-02    9.1015710938e+04
    1.7549976707e-02    9.0987375000e+04
    1.7559977248e-02    9.0959398438e+04
    1.7569979653e-02    9.0931414062e+04
    1.7579982057e-02    9.0903273438e+04
    1.7589984462e-02    9.0875281250e+04
    1.7599986866e-02    9.0847445312e+04
    1.7609989271e-02    9.0819093750e+04
    1.7619993538e-02    9.0790187500e+04
    1.7629995942e-02    9.0761695312e+04
    1.7639998347e-02    9.0733507812e+04
    1.7649745569e-02    9.0705460938e+04
    1.7659747973e-02    9.0677351562e+04
    1.7669752240e-02    9.0650726562e+04
    1.7679754645e-02    9.0623773438e+04
    1.7689758912e-02    9.0596351562e+04
    1.7699763179e-02    9.0569812500e+04
    1.7709765583e-02    9.0543414062e+04
    1.7719769850e-02    9.0515531250e+04
    1.7729774117e-02    9.0487695312e+04
    1.7739778385e-02    9.0460562500e+04
    1.7749782652e-02    9.0432500000e+04
    1.7759786919e-02    9.0404500000e+04
    1.7769791186e-02    9.0377445312e+04
    1.7779797316e-02    9.0349960938e+04
    1.7789801583e-02    9.0322585938e+04
    1.7799805850e-02    9.0295687500e+04
    1.7809811980e-02    9.0268562500e+04
    1.7819816247e-02    9.0241687500e+04
    1.7829820514e-02    9.0214523438e+04
    1.7839826643e-02    9.0187414062e+04
    1.7849832773e-02    9.0160601562e+04
    1.7859837040e-02    9.0133632812e+04
    1.7869843170e-02    9.0106656250e+04
    1.7879849300e-02    9.0079500000e+04
    1.7889855430e-02    9.0052625000e+04
    1.7899861559e-02    9.0025835938e+04
    1.7909867689e-02    8.9999164062e+04
    1.7919873819e-02    8.9972539062e+04
    1.7929879948e-02    8.9946179688e+04
    1.7939886078e-02    8.9920085938e+04
    1.7949894071e-02    8.9894148438e+04
    1.7959900200e-02    8.9868210938e+04
    1.7969906330e-02    8.9842531250e+04
    1.7979914322e-02    8.9817250000e+04
    1.7989920452e-02    8.9791789062e+04
    1.7999928445e-02    8.9765804688e+04
    1.8009936437e-02    8.9739976562e+04
    1.8019942567e-02    8.9713976562e+04
    1.8029950559e-02    8.9686875000e+04
    1.8039958552e-02    8.9660101562e+04
    1.8049966544e-02    8.9634367188e+04
    1.8059974536e-02    8.9607960938e+04
    1.8069982529e-02    8.9581320312e+04
    1.8079990521e-02    8.9556023438e+04
    1.8089998513e-02    8.9531320312e+04
    1.8099751323e-02    8.9506593750e+04
    1.8109759316e-02    8.9481695312e+04
    1.8119769171e-02    8.9457460938e+04
    1.8129777163e-02    8.9432281250e+04
    1.8139787018e-02    8.9406601562e+04
    1.8149795011e-02    8.9381257812e+04
    1.8159804866e-02    8.9355718750e+04
    1.8169812858e-02    8.9329968750e+04
    1.8179822713e-02    8.9304601562e+04
    1.8189832568e-02    8.9279695312e+04
    1.8199842423e-02    8.9254781250e+04
    1.8209852278e-02    8.9230226562e+04
    1.8219862133e-02    8.9205867188e+04
    1.8229871988e-02    8.9181257812e+04
    1.8239881843e-02    8.9156835938e+04
    1.8249891698e-02    8.9132148438e+04
    1.8259901553e-02    8.9107273438e+04
    1.8269911408e-02    8.9082523438e+04
    1.8279921263e-02    8.9057781250e+04
    1.8289932981e-02    8.9033398438e+04
    1.8299942836e-02    8.9009125000e+04
    1.8309954554e-02    8.8985039062e+04
    1.8319964409e-02    8.8960851562e+04
    1.8329976127e-02    8.8936804688e+04
    1.8339985982e-02    8.8912750000e+04
    1.8349997699e-02    8.8888812500e+04
    1.8359752372e-02    8.8865476562e+04
    1.8369762227e-02    8.8841507812e+04
    1.8379773945e-02    8.8817476562e+04
    1.8389785662e-02    8.8793789062e+04
    1.8399797380e-02    8.8770273438e+04
    1.8409809098e-02    8.8746312500e+04
    1.8419820815e-02    8.8722554688e+04
    1.8429832533e-02    8.8699750000e+04
    1.8439844251e-02    8.8676257812e+04
    1.8449855968e-02    8.8651976562e+04
    1.8459867686e-02    8.8629210938e+04
    1.8469881266e-02    8.8606367188e+04
    1.8479892984e-02    8.8582398438e+04
    1.8489904702e-02    8.8559507812e+04
    1.8499918282e-02    8.8536851562e+04
    1.8509930000e-02    8.8513664062e+04
    1.8519941717e-02    8.8490625000e+04
    1.8529955298e-02    8.8468000000e+04
    1.8539968878e-02    8.8445257812e+04
    1.8549980596e-02    8.8422226562e+04
    1.8559994176e-02    8.8399656250e+04
    1.8569750711e-02    8.8377664062e+04
    1.8579764292e-02    8.8355062500e+04
    1.8589776009e-02    8.8332601562e+04
    1.8599789590e-02    8.8310156250e+04
    1.8609803170e-02    8.8287664062e+04
    1.8619816750e-02    8.8265531250e+04
    1.8629830331e-02    8.8243375000e+04
    1.8639843911e-02    8.8221226562e+04
    1.8649857491e-02    8.8199085938e+04
    1.8659871072e-02    8.8176976562e+04
    1.8669884652e-02    8.8155148438e+04
    1.8679898232e-02    8.8133210938e+04
    1.8689911813e-02    8.8111367188e+04
    1.8699927256e-02    8.8089476562e+04
    1.8709940836e-02    8.8067773438e+04
    1.8719954416e-02    8.8046148438e+04
    1.8729969859e-02    8.8024718750e+04
    1.8739983439e-02    8.8003250000e+04
    1.8749998882e-02    8.7981718750e+04
    1.8759755418e-02    8.7960773438e+04
    1.8769770861e-02    8.7939757812e+04
    1.8779784441e-02    8.7918757812e+04
    1.8789799884e-02    8.7897273438e+04
    1.8799815327e-02    8.7876039062e+04
    1.8809828907e-02    8.7855625000e+04
    1.8819844350e-02    8.7834476562e+04
    1.8829859793e-02    8.7812976562e+04
    1.8839875236e-02    8.7792804688e+04
    1.8849890679e-02    8.7772289062e+04
    1.8859904259e-02    8.7750960938e+04
    1.8869919702e-02    8.7730789062e+04
    1.8879935145e-02    8.7710718750e+04
    1.8889950588e-02    8.7689820312e+04
    1.8899966031e-02    8.7669312500e+04
    1.8909981474e-02    8.7649320312e+04
    1.8919996917e-02    8.7628976562e+04
    1.8929757178e-02    8.7609250000e+04
    1.8939772621e-02    8.7589351562e+04
    1.8949788064e-02    8.7569343750e+04
    1.8959803507e-02    8.7549289062e+04
    1.8969818950e-02    8.7529468750e+04
    1.8979836255e-02    8.7509781250e+04
    1.8989851698e-02    8.7490023438e+04
    1.8999867141e-02    8.7470531250e+04
    1.9009884447e-02    8.7450820312e+04
    1.9019899890e-02    8.7431343750e+04
    1.9029917195e-02    8.7411898438e+04
    1.9039932638e-02    8.7392500000e+04
    1.9049949944e-02    8.7373226562e+04
    1.9059965387e-02    8.7353929688e+04
    1.9069982693e-02    8.7334734375e+04
    1.9079998136e-02    8.7315546875e+04
    1.9089758396e-02    8.7297007812e+04
    1.9099775702e-02    8.7278093750e+04
    1.9109791145e-02    8.7259375000e+04
    1.9119808450e-02    8.7240656250e+04
    1.9129825756e-02    8.7221867188e+04
    1.9139841199e-02    8.7203148438e+04
    1.9149858505e-02    8.7184828125e+04
    1.9159875810e-02    8.7166312500e+04
    1.9169893116e-02    8.7147492188e+04
    1.9179908559e-02    8.7129281250e+04
    1.9189925864e-02    8.7111570312e+04
    1.9199943170e-02    8.7092882812e+04
    1.9209960476e-02    8.7074281250e+04
    1.9219977781e-02    8.7056898438e+04
    1.9229995087e-02    8.7038757812e+04
    1.9239755347e-02    8.7020742188e+04
    1.9249772653e-02    8.7003437500e+04
    1.9259789959e-02    8.6985820312e+04
    1.9269807264e-02    8.6967773438e+04
    1.9279824570e-02    8.6950312500e+04
    1.9289841875e-02    8.6932828125e+04
    1.9299859181e-02    8.6915054688e+04
    1.9309876487e-02    8.6897687500e+04
    1.9319893792e-02    8.6880328125e+04
    1.9329911098e-02    8.6862867188e+04
    1.9339928403e-02    8.6845687500e+04
    1.9349945709e-02    8.6828398438e+04
    1.9359964877e-02    8.6811304688e+04
    1.9369982183e-02    8.6794250000e+04
    1.9379999489e-02    8.6777250000e+04
    1.9389759749e-02    8.6760773438e+04
    1.9399777055e-02    8.6744000000e+04
    1.9409794360e-02    8.6727265625e+04
    1.9419813529e-02    8.6710687500e+04
    1.9429830834e-02    8.6694062500e+04
    1.9439848140e-02    8.6677601562e+04
[...]
    1.1513978988e-01    1.0123397656e+05
    1.1514986306e-01    1.0123397656e+05
    1.1515993625e-01    1.0123396875e+05
    1.1516971886e-01    1.0123396094e+05
    1.1517979205e-01    1.0123396094e+05
    1.1518986523e-01    1.0123394531e+05
    1.1519993842e-01    1.0123392969e+05
    1.1520971358e-01    1.0123391406e+05
    1.1521978676e-01    1.0123391406e+05
    1.1522985995e-01    1.0123390625e+05
    1.1523993313e-01    1.0123389844e+05
    1.1524971575e-01    1.0123389844e+05
    1.1525978893e-01    1.0123388281e+05
    1.1526986212e-01    1.0123387500e+05
    1.1527993530e-01    1.0123386719e+05
    1.1528971046e-01    1.0123385156e+05
    1.1529978365e-01    1.0123385156e+05
    1.1530985683e-01    1.0123383594e+05
    1.1531993747e-01    1.0123383594e+05
    1.1532971263e-01    1.0123382031e+05
    1.1533978581e-01    1.0123381250e+05
    1.1534985900e-01    1.0123378906e+05
    1.1535993218e-01    1.0123378906e+05
    1.1536970735e-01    1.0123378125e+05
    1.1537978053e-01    1.0123377344e+05
    1.1538986117e-01    1.0123377344e+05
    1.1539993435e-01    1.0123375000e+05
    1.1540970951e-01    1.0123374219e+05
    1.1541978270e-01    1.0123372656e+05
    1.1542985588e-01    1.0123372656e+05
    1.1543992907e-01    1.0123371875e+05
    1.1544971168e-01    1.0123371875e+05
    1.1545978487e-01    1.0123371094e+05
    1.1546985805e-01    1.0123371094e+05
    1.1547993124e-01    1.0123369531e+05
    1.1548970640e-01    1.0123368750e+05
    1.1549977958e-01    1.0123367969e+05
    1.1550985277e-01    1.0123366406e+05
    1.1551992595e-01    1.0123365625e+05
    1.1552970856e-01    1.0123364844e+05
    1.1553978175e-01    1.0123364844e+05
    1.1554985493e-01    1.0123363281e+05
    1.1555992812e-01    1.0123362500e+05
    1.1556970328e-01    1.0123361719e+05
    1.1557977647e-01    1.0123360156e+05
    1.1558984965e-01    1.0123360156e+05
    1.1559992284e-01    1.0123358594e+05
    1.1561000347e-01    1.0123358594e+05
    1.1561977863e-01    1.0123357031e+05
    1.1562985182e-01    1.0123356250e+05
    1.1563992500e-01    1.0123355469e+05
    1.1564999819e-01    1.0123353906e+05
    1.1565977335e-01    1.0123353125e+05
    1.1566984653e-01    1.0123352344e+05
    1.1567992717e-01    1.0123352344e+05
    1.1569000036e-01    1.0123350781e+05
    1.1569977552e-01    1.0123350000e+05
    1.1570984870e-01    1.0123349219e+05
    1.1571992189e-01    1.0123347656e+05
    1.1572999507e-01    1.0123346875e+05
    1.1573977768e-01    1.0123346094e+05
    1.1574985087e-01    1.0123346094e+05
    1.1575992405e-01    1.0123344531e+05
    1.1576999724e-01    1.0123343750e+05
    1.1577977240e-01    1.0123343750e+05
    1.1578984559e-01    1.0123342969e+05
    1.1579991877e-01    1.0123341406e+05
    1.1580999196e-01    1.0123340625e+05
    1.1581977457e-01    1.0123339844e+05
    1.1582984775e-01    1.0123339844e+05
    1.1583992094e-01    1.0123338281e+05
    1.1584999412e-01    1.0123337500e+05
    1.1585976928e-01    1.0123336719e+05
    1.1586984247e-01    1.0123335156e+05
    1.1587991565e-01    1.0123334375e+05
    1.1588998884e-01    1.0123333594e+05
    1.1589977145e-01    1.0123333594e+05
    1.1590984464e-01    1.0123332031e+05
    1.1591991782e-01    1.0123331250e+05
    1.1592999101e-01    1.0123330469e+05
    1.1593976617e-01    1.0123328906e+05
    1.1594983935e-01    1.0123328906e+05
    1.1595991254e-01    1.0123328906e+05
    1.1596999317e-01    1.0123328125e+05
    1.1597976834e-01    1.0123327344e+05
    1.1598984152e-01    1.0123327344e+05
    1.1599991471e-01    1.0123325781e+05
    1.1600998789e-01    1.0123325000e+05
    1.1601976305e-01    1.0123324219e+05
    1.1602984369e-01    1.0123322656e+05
    1.1603991687e-01    1.0123321875e+05
    1.1604999006e-01    1.0123321094e+05
    1.1605976522e-01    1.0123321094e+05
    1.1606983840e-01    1.0123318750e+05
    1.1607991159e-01    1.0123317969e+05
    1.1608998477e-01    1.0123316406e+05
    1.1609976739e-01    1.0123316406e+05
    1.1610984057e-01    1.0123315625e+05
    1.1611991376e-01    1.0123314844e+05
    1.1612998694e-01    1.0123314844e+05
    1.1613976210e-01    1.0123313281e+05
    1.1614983529e-01    1.0123312500e+05
    1.1615990847e-01    1.0123311719e+05
    1.1616998166e-01    1.0123310156e+05
    1.1617976427e-01    1.0123310156e+05
    1.1618983746e-01    1.0123309375e+05
    1.1619991064e-01    1.0123308594e+05
    1.1620998383e-01    1.0123308594e+05
    1.1621975899e-01    1.0123307031e+05
    1.1622983217e-01    1.0123306250e+05
    1.1623990536e-01    1.0123305469e+05
    1.1624997854e-01    1.0123303906e+05
    1.1625976115e-01    1.0123303906e+05
    1.1626983434e-01    1.0123303125e+05
    1.1627990752e-01    1.0123302344e+05
    1.1628998071e-01    1.0123300781e+05
    1.1629975587e-01    1.0123300000e+05
    1.1630982906e-01    1.0123299219e+05
    1.1631990969e-01    1.0123297656e+05
    1.1632998288e-01    1.0123296875e+05
    1.1633975804e-01    1.0123296094e+05
    1.1634983122e-01    1.0123294531e+05
    1.1635990441e-01    1.0123293750e+05
    1.1636997759e-01    1.0123292969e+05
    1.1637975276e-01    1.0123291406e+05
    1.1638983339e-01    1.0123291406e+05
    1.1639990658e-01    1.0123291406e+05
    1.1640997976e-01    1.0123290625e+05
    1.1641975492e-01    1.0123289844e+05
    1.1642982811e-01    1.0123288281e+05
    1.1643990129e-01    1.0123287500e+05
    1.1644997448e-01    1.0123286719e+05
    1.1645975709e-01    1.0123285156e+05
    1.1646983027e-01    1.0123285156e+05
    1.1647990346e-01    1.0123283594e+05
    1.1648997664e-01    1.0123283594e+05
    1.1649975181e-01    1.0123282031e+05
    1.1650982499e-01    1.0123281250e+05
    1.1651989818e-01    1.0123280469e+05
    1.1652997136e-01    1.0123278906e+05
    1.1653975397e-01    1.0123278906e+05
    1.1654982716e-01    1.0123277344e+05
    1.1655990034e-01    1.0123277344e+05
    1.1656997353e-01    1.0123275781e+05
    1.1657974869e-01    1.0123275000e+05
    1.1658982188e-01    1.0123274219e+05
    1.1659989506e-01    1.0123272656e+05
    1.1660997570e-01    1.0123272656e+05
    1.1661975086e-01    1.0123271094e+05
    1.1662982404e-01    1.0123271094e+05
    1.1663989723e-01    1.0123269531e+05
    1.1664997041e-01    1.0123268750e+05
    1.1665974557e-01    1.0123267969e+05
    1.1666981876e-01    1.0123266406e+05
    1.1667989939e-01    1.0123265625e+05
    1.1668997258e-01    1.0123264844e+05
    1.1669974774e-01    1.0123264844e+05
    1.1670982093e-01    1.0123263281e+05
    1.1671989411e-01    1.0123262500e+05
    1.1672996730e-01    1.0123261719e+05
    1.1673974991e-01    1.0123260156e+05
    1.1674982309e-01    1.0123260156e+05
    1.1675989628e-01    1.0123260156e+05
    1.1676996946e-01    1.0123259375e+05
    1.1677974463e-01    1.0123258594e+05
    1.1678981781e-01    1.0123257031e+05
    1.1679989100e-01    1.0123256250e+05
    1.1680996418e-01    1.0123255469e+05
    1.1681974679e-01    1.0123253906e+05
    1.1682981998e-01    1.0123253906e+05
    1.1683989316e-01    1.0123252344e+05
    1.1684996635e-01    1.0123252344e+05
    1.1685974151e-01    1.0123250781e+05
    1.1686981469e-01    1.0123250000e+05
    1.1687988788e-01    1.0123249219e+05
    1.1688996106e-01    1.0123247656e+05
    1.1689974368e-01    1.0123247656e+05
    1.1690981686e-01    1.0123246875e+05
    1.1691989005e-01    1.0123246094e+05
    1.1692996323e-01    1.0123246094e+05
    1.1693973839e-01    1.0123244531e+05
    1.1694981158e-01    1.0123243750e+05
    1.1695989221e-01    1.0123242969e+05
    1.1696996540e-01    1.0123241406e+05
    1.1697974056e-01    1.0123241406e+05
    1.1698981375e-01    1.0123239844e+05
    1.1699988693e-01    1.0123239844e+05
    1.1700996011e-01    1.0123238281e+05
    1.1701973528e-01    1.0123237500e+05
    1.1702981591e-01    1.0123236719e+05
    1.1703988910e-01    1.0123235156e+05
    1.1704996228e-01    1.0123235156e+05
    1.1705973744e-01    1.0123234375e+05
    1.1706981063e-01    1.0123233594e+05
    1.1707988381e-01    1.0123233594e+05
    1.1708995700e-01    1.0123232031e+05
    1.1709973961e-01    1.0123230469e+05
    1.1710981280e-01    1.0123228906e+05
    1.1711988598e-01    1.0123228906e+05
    1.1712995917e-01    1.0123228125e+05
    1.1713973433e-01    1.0123227344e+05
    1.1714980751e-01    1.0123227344e+05
    1.1715988070e-01    1.0123225781e+05
    1.1716995388e-01    1.0123225000e+05
    1.1717973650e-01    1.0123224219e+05
    1.1718980968e-01    1.0123222656e+05
    1.1719988286e-01    1.0123222656e+05
    1.1720995605e-01    1.0123221875e+05
    1.1721973121e-01    1.0123221094e+05
    1.1722980440e-01    1.0123221094e+05
    1.1723987758e-01    1.0123218750e+05
    1.1724995822e-01    1.0123217969e+05
    1.1725973338e-01    1.0123216406e+05
    1.1726980656e-01    1.0123216406e+05
    1.1727987975e-01    1.0123215625e+05
    1.1728995293e-01    1.0123214844e+05
    1.1729972810e-01    1.0123213281e+05
    1.1730980873e-01    1.0123212500e+05
    1.1731988192e-01    1.0123211719e+05
    1.1732995510e-01    1.0123210156e+05
    1.1733973026e-01    1.0123210156e+05
    1.1734980345e-01    1.0123209375e+05
    1.1735987663e-01    1.0123208594e+05
    1.1736994982e-01    1.0123208594e+05
    1.1737973243e-01    1.0123207031e+05
    1.1738980561e-01    1.0123206250e+05
    1.1739987880e-01    1.0123205469e+05
    1.1740995198e-01    1.0123203906e+05
    1.1741972715e-01    1.0123203906e+05
    1.1742980033e-01    1.0123203125e+05
    1.1743987352e-01    1.0123202344e+05
    1.1744994670e-01    1.0123202344e+05
    1.1745972931e-01    1.0123200000e+05
    1.1746980250e-01    1.0123199219e+05
    1.1747987568e-01    1.0123197656e+05
    1.1748994887e-01    1.0123197656e+05
    1.1749972403e-01    1.0123196875e+05
    1.1750979722e-01    1.0123196875e+05
    1.1751987040e-01    1.0123196094e+05
    1.1752995104e-01    1.0123196094e+05
    1.1753972620e-01    1.0123194531e+05
    1.1754979938e-01    1.0123193750e+05
    1.1755987257e-01    1.0123192969e+05
    1.1756994575e-01    1.0123191406e+05
    1.1757972091e-01    1.0123191406e+05
    1.1758980155e-01    1.0123190625e+05
    1.1759987473e-01    1.0123189844e+05
    1.1760994792e-01    1.0123189844e+05
    1.1761972308e-01    1.0123187500e+05
    1.1762979627e-01    1.0123186719e+05
    1.1763986945e-01    1.0123185156e+05
    1.1764994264e-01    1.0123185156e+05
    1.1765972525e-01    1.0123184375e+05
    1.1766979843e-01    1.0123183594e+05
    1.1767987162e-01    1.0123183594e+05
    1.1768994480e-01    1.0123182031e+05
    1.1769971997e-01    1.0123181250e+05
    1.1770979315e-01    1.0123180469e+05
    1.1771986634e-01    1.0123178906e+05
    1.1772993952e-01    1.0123178906e+05
    1.1773972213e-01    1.0123178125e+05
    1.1774979532e-01    1.0123177344e+05
    1.1775986850e-01    1.0123177344e+05
    1.1776994169e-01    1.0123175781e+05
    1.1777971685e-01    1.0123175000e+05
    1.1778979003e-01    1.0123175000e+05
    1.1779986322e-01    1.0123174219e+05
    1.1780994385e-01    1.0123172656e+05
    1.1781971902e-01    1.0123172656e+05
    1.1782979220e-01    1.0123171875e+05
    1.1783986539e-01    1.0123171094e+05
    1.1784993857e-01    1.0123171094e+05
    1.1785971373e-01    1.0123169531e+05
    1.1786979437e-01    1.0123167969e+05
    1.1787986755e-01    1.0123166406e+05
    1.1788994074e-01    1.0123166406e+05
    1.1789971590e-01    1.0123165625e+05
    1.1790978909e-01    1.0123164844e+05
    1.1791986227e-01    1.0123163281e+05
    1.1792993546e-01    1.0123162500e+05
    1.1793971807e-01    1.0123161719e+05
    1.1794979125e-01    1.0123160156e+05
    1.1795986444e-01    1.0123160156e+05
    1.1796993762e-01    1.0123159375e+05
    1.1797971278e-01    1.0123158594e+05
    1.1798978597e-01    1.0123158594e+05
    1.1799985915e-01    1.0123156250e+05
    1.1800993234e-01    1.0123155469e+05
    1.1801971495e-01    1.0123153906e+05
    1.1802978814e-01    1.0123153906e+05
    1.1803986132e-01    1.0123153125e+05
    1.1804993451e-01    1.0123152344e+05
    1.1805970967e-01    1.0123152344e+05
    1.1806978285e-01    1.0123150781e+05
    1.1807985604e-01    1.0123150000e+05
    1.1808993667e-01    1.0123150000e+05
    1.1809971184e-01    1.0123149219e+05
    1.1810978502e-01    1.0123147656e+05
    1.1811985821e-01    1.0123147656e+05
    1.1812993139e-01    1.0123146875e+05
    1.1813970655e-01    1.0123146094e+05
    1.1814978719e-01    1.0123146094e+05
    1.1815986037e-01    1.0123144531e+05
    1.1816993356e-01    1.0123142969e+05
    1.1817970872e-01    1.0123141406e+05
    1.1818978190e-01    1.0123141406e+05
    1.1819985509e-01    1.0123140625e+05
    1.1820992827e-01    1.0123139844e+05
    1.1821971089e-01    1.0123139844e+05
    1.1822978407e-01    1.0123138281e+05
    1.1823985726e-01    1.0123136719e+05
    1.1824993044e-01    1.0123135156e+05
    1.1825970560e-01    1.0123135156e+05
    1.1826977879e-01    1.0123134375e+05
    1.1827985197e-01    1.0123133594e+05
    1.1828992516e-01    1.0123133594e+05
    1.1829970777e-01    1.0123132031e+05
    1.1830978096e-01    1.0123131250e+05
    1.1831985414e-01    1.0123130469e+05
    1.1832992733e-01    1.0123128906e+05
    1.1833970249e-01    1.0123128906e+05
    1.1834977567e-01    1.0123128125e+05
    1.1835985631e-01    1.0123127344e+05
    1.1836992949e-01    1.0123127344e+05
    1.1837970465e-01    1.0123127344e+05
    1.1838977784e-01    1.0123125781e+05
    1.1839985102e-01    1.0123124219e+05
    1.1840992421e-01    1.0123122656e+05
    1.1841999739e-01    1.0123122656e+05
    1.1842978001e-01    1.0123121875e+05
    1.1843985319e-01    1.0123121094e+05
    1.1844992638e-01    1.0123121094e+05
    1.1845999956e-01    1.0123119531e+05
    1.1846977472e-01    1.0123118750e+05
    1.1847984791e-01    1.0123118750e+05
    1.1848992109e-01    1.0123117969e+05
    1.1849999428e-01    1.0123116406e+05
    1.1850977689e-01    1.0123116406e+05
    1.1851985008e-01    1.0123115625e+05
    1.1852992326e-01    1.0123114844e+05
    1.1853999645e-01    1.0123113281e+05
    1.1854977161e-01    1.0123112500e+05
    1.1855984479e-01    1.0123111719e+05
    1.1856992543e-01    1.0123110156e+05
    1.1857999861e-01    1.0123109375e+05
    1.1858977377e-01    1.0123108594e+05
    1.1859984696e-01    1.0123108594e+05
    1.1860992014e-01    1.0123107031e+05
    1.1861999333e-01    1.0123106250e+05
    1.1862976849e-01    1.0123106250e+05
    1.1863984913e-01    1.0123105469e+05
    1.1864992231e-01    1.0123103906e+05
    1.1865999550e-01    1.0123103906e+05
    1.1866977066e-01    1.0123103125e+05
    1.1867984384e-01    1.0123102344e+05
    1.1868991703e-01    1.0123102344e+05
    1.1869999021e-01    1.0123100781e+05
    1.1870977283e-01    1.0123100000e+05
    1.1871984601e-01    1.0123097656e+05
    1.1872991920e-01    1.0123097656e+05
    1.1873999238e-01    1.0123096875e+05
    1.1874976754e-01    1.0123096094e+05
    1.1875984073e-01    1.0123096094e+05
    1.1876991391e-01    1.0123094531e+05
    1.1877998710e-01    1.0123093750e+05
    1.1878976971e-01    1.0123092969e+05
    1.1879984289e-01    1.0123091406e+05
    1.1880991608e-01    1.0123091406e+05
    1.1881998926e-01    1.0123090625e+05
    1.1882976443e-01    1.0123089844e+05
    1.1883983761e-01    1.0123089844e+05
    1.1884991825e-01    1.0123088281e+05
    1.1885999143e-01    1.0123087500e+05
    1.1886976659e-01    1.0123086719e+05
    1.1887983978e-01    1.0123085156e+05
    1.1888991296e-01    1.0123085156e+05
    1.1889998615e-01    1.0123084375e+05
    1.1890976876e-01    1.0123083594e+05
    1.1891984195e-01    1.0123083594e+05
    1.1892991513e-01    1.0123082031e+05
    1.1893998832e-01    1.0123081250e+05
    1.1894976348e-01    1.0123080469e+05
    1.1895983666e-01    1.0123078906e+05
    1.1896990985e-01    1.0123078906e+05
    1.1897998303e-01    1.0123078125e+05
    1.1898976564e-01    1.0123077344e+05
    1.1899983883e-01    1.0123077344e+05
    1.1900991201e-01    1.0123077344e+05
    1.1901998520e-01    1.0123075781e+05
    1.1902976036e-01    1.0123075000e+05
    1.1903983355e-01    1.0123074219e+05
    1.1904990673e-01    1.0123072656e+05
    1.1905998737e-01    1.0123072656e+05
    1.1906976253e-01    1.0123071875e+05
    1.1907983571e-01    1.0123071094e+05
    1.1908990890e-01    1.0123069531e+05
    1.1909998208e-01    1.0123068750e+05
    1.1910975724e-01    1.0123067969e+05
    1.1911983788e-01    1.0123066406e+05
    1.1912991107e-01    1.0123066406e+05
    1.1913998425e-01    1.0123065625e+05
    1.1914975941e-01    1.0123064844e+05
    1.1915983260e-01    1.0123064844e+05
    1.1916990578e-01    1.0123063281e+05
    1.1917997897e-01    1.0123062500e+05
    1.1918976158e-01    1.0123062500e+05
    1.1919983476e-01    1.0123061719e+05
    1.1920990795e-01    1.0123060156e+05
    1.1921998113e-01    1.0123060156e+05
    1.1922975630e-01    1.0123059375e+05
    1.1923982948e-01    1.0123058594e+05
    1.1924990267e-01    1.0123058594e+05
    1.1925997585e-01    1.0123057031e+05
    1.1926975846e-01    1.0123056250e+05
    1.1927983165e-01    1.0123055469e+05
    1.1928990483e-01    1.0123053906e+05
    1.1929997802e-01    1.0123053906e+05
    1.1930975318e-01    1.0123053125e+05
    1.1931982636e-01    1.0123052344e+05
    1.1932990700e-01    1.0123052344e+05
    1.1933998019e-01    1.0123050781e+05
    1.1934975535e-01    1.0123050000e+05
    1.1935982853e-01    1.0123049219e+05
    1.1936990172e-01    1.0123047656e+05
    1.1937997490e-01    1.0123047656e+05
    1.1938975751e-01    1.0123046875e+05
    1.1939983070e-01    1.0123046094e+05
    1.1940990388e-01    1.0123046094e+05
    1.1941997707e-01    1.0123044531e+05
    1.1942975223e-01    1.0123043750e+05
    1.1943982542e-01    1.0123042969e+05
    1.1944989860e-01    1.0123041406e+05
    1.1945997179e-01    1.0123041406e+05
    1.1946975440e-01    1.0123040625e+05
    1.1947982758e-01    1.0123039844e+05
    1.1948990077e-01    1.0123039844e+05
    1.1949997395e-01    1.0123038281e+05
    1.1950974911e-01    1.0123037500e+05
    1.1951982230e-01    1.0123036719e+05
    1.1952989548e-01    1.0123035156e+05
    1.1953997612e-01    1.0123035156e+05
    1.1954975128e-01    1.0123034375e+05
    1.1955982447e-01    1.0123033594e+05
    1.1956989765e-01    1.0123032031e+05
    1.1957997084e-01    1.0123030469e+05
    1.1958974600e-01    1.0123028906e+05
    1.1959982663e-01    1.0123028906e+05
    1.1960989982e-01    1.0123028125e+05
    1.1961997300e-01    1.0123027344e+05
    1.1962974817e-01    1.0123027344e+05
    1.1963982135e-01    1.0123025781e+05
    1.1964989454e-01    1.0123025781e+05
    1.1965996772e-01    1.0123025000e+05
    1.1966975033e-01    1.0123024219e+05
    1.1967982352e-01    1.0123024219e+05
    1.1968989670e-01    1.0123022656e+05
    1.1969996989e-01    1.0123022656e+05
    1.1970974505e-01    1.0123021875e+05
    1.1971981823e-01    1.0123021094e+05
    1.1972989142e-01    1.0123021094e+05
    1.1973996460e-01    1.0123019531e+05
    1.1974974722e-01    1.0123018750e+05
    1.1975982040e-01    1.0123017969e+05
    1.1976989359e-01    1.0123017969e+05
    1.1977996677e-01    1.0123016406e+05
    1.1978974193e-01    1.0123016406e+05
    1.1979981512e-01    1.0123015625e+05
    1.1980988830e-01    1.0123014844e+05
    1.1981996894e-01    1.0123014844e+05
    1.1982974410e-01    1.0123014844e+05
    1.1983981729e-01    1.0123013281e+05
    1.1984989047e-01    1.0123011719e+05
    1.1985996366e-01    1.0123010156e+05
    1.1986973882e-01    1.0123010156e+05
    1.1987981945e-01    1.0123009375e+05
    1.1988989264e-01    1.0123008594e+05
    1.1989996582e-01    1.0123007031e+05
    1.1990974098e-01    1.0123006250e+05
    1.1991981417e-01    1.0123005469e+05
    1.1992988735e-01    1.0123003906e+05
    1.1993996054e-01    1.0123003906e+05
    1.1994974315e-01    1.0123003125e+05
    1.1995981634e-01    1.0123003125e+05
    1.1996988952e-01    1.0123002344e+05
    1.1997996271e-01    1.0123002344e+05
    1.1998973787e-01    1.0123002344e+05
    1.1999981105e-01    1.0123000781e+05
endcurve
