Curveplot
LS-DYNA keyword deck by LS-PrePost                          
Time
Pressure
Defined Connection
Pressure @ 1 #pts=1745
* Minval=     9.8017726562e+04 at time=         0.0125495652
* Maxval=     1.7233000000e+05 at time=         0.0060591097
    0.0000000000e+00    9.9998125000e+04
    3.3812357287e-05    9.9998125000e+04
    6.1326652940e-05    9.9998320312e+04
    8.9102875791e-05    9.9998414062e+04
    1.1682785407e-04    9.9998523438e+04
    1.4461828687e-04    9.9998835938e+04
    1.7236733402e-04    9.9999343750e+04
    2.0016246708e-04    1.0000910156e+05
    2.2795486439e-04    1.0000052344e+05
    2.5574557367e-04    1.0000052344e+05
    2.8353667585e-04    1.0000021094e+05
    3.1133697485e-04    9.9990718750e+04
    3.3912662184e-04    9.9999679688e+04
    3.6691734567e-04    9.9999937500e+04
    3.9470891352e-04    1.0000041406e+05
    4.2249175021e-04    1.0001008594e+05
    4.5027161832e-04    1.0000141406e+05
    4.7804549104e-04    1.0000133594e+05
    5.0581363030e-04    9.9991960938e+04
    5.3357944125e-04    1.0000087500e+05
    5.6134146871e-04    1.0000096094e+05
    5.8909942163e-04    1.0000078906e+05
    6.1685312539e-04    1.0000047656e+05
    6.4460188150e-04    1.0000057031e+05
    6.7234638846e-04    1.0000105469e+05
    7.0008635521e-04    1.0000167969e+05
    7.2782178177e-04    1.0000199219e+05
    7.5555208605e-04    1.0000167969e+05
    7.8327720985e-04    9.9992257812e+04
    8.1099680392e-04    1.0000127344e+05
    8.3871174138e-04    1.0000157031e+05
    8.6642213864e-04    1.0000171875e+05
    8.9412782108e-04    9.9992406250e+04
    9.2182843946e-04    1.0000136719e+05
    9.4952445943e-04    1.0000164844e+05
    9.7721535712e-04    1.0000178906e+05
    1.0049008997e-03    1.0000121094e+05
    1.0325826006e-03    1.0000083594e+05
    1.0602590628e-03    1.0000131250e+05
    1.0879321489e-03    1.0000191406e+05
    1.1155996472e-03    1.0000237500e+05
    1.1432634201e-03    1.0000253906e+05
    1.1709230021e-03    9.9993054688e+04
    1.1985785095e-03    9.9992601562e+04
    1.2262313394e-03    1.0000196875e+05
    1.2538790470e-03    1.0001215625e+05
    1.2815232622e-03    1.0001314844e+05
    1.3091630535e-03    9.9995531250e+04
    1.3368004002e-03    9.9996812500e+04
    1.3644339051e-03    1.0000438281e+05
    1.3920635683e-03    1.0003382031e+05
    1.4196902048e-03    1.0007881250e+05
    1.4473132323e-03    1.0014561719e+05
    1.4749332331e-03    1.0026110156e+05
    1.5025498578e-03    1.0044960156e+05
    1.5301633393e-03    1.0073018750e+05
    1.5577742597e-03    1.0111539844e+05
    1.5853822697e-03    1.0159058594e+05
    1.6129877185e-03    1.0214827344e+05
    1.6405890929e-03    1.0275088281e+05
    1.6681876732e-03    1.0335330469e+05
    1.6957829939e-03    1.0388982031e+05
    1.7233766848e-03    1.0432402344e+05
    1.7509678146e-03    1.0460872656e+05
    1.7785291420e-03    1.0474646875e+05
    1.8060547300e-03    1.0473968750e+05
    1.8335470231e-03    1.0461430469e+05
    1.8610082334e-03    1.0440035156e+05
    1.8884401070e-03    1.0414922656e+05
    1.9158447394e-03    1.0388828906e+05
    1.9432241097e-03    1.0364905469e+05
    1.9705800805e-03    1.0346144531e+05
    1.9979148638e-03    1.0334531250e+05
    2.0252298564e-03    1.0330511719e+05
    2.0525271539e-03    1.0332177344e+05
    2.0798076876e-03    1.0337552344e+05
    2.1070730872e-03    1.0345750000e+05
    2.1343247499e-03    1.0352509375e+05
    2.1615643054e-03    1.0356785156e+05
    2.1887931507e-03    1.0356784375e+05
    2.2160108201e-03    1.0351384375e+05
    2.2432196420e-03    1.0341241406e+05
    2.2704207804e-03    1.0325971875e+05
    2.2976147011e-03    1.0307975000e+05
    2.3248014040e-03    1.0288691406e+05
    2.3519827519e-03    1.0268647656e+05
    2.3791582789e-03    1.0250111719e+05
    2.4063293822e-03    1.0233797656e+05
    2.4334960617e-03    1.0220319531e+05
    2.4606597144e-03    1.0208847656e+05
    2.4878205732e-03    1.0200927344e+05
    2.5149781723e-03    1.0195778125e+05
    2.5421329774e-03    1.0193027344e+05
    2.5692859199e-03    1.0191735156e+05
    2.5964374654e-03    1.0190786719e+05
    2.6235871483e-03    1.0191156250e+05
    2.6507352013e-03    1.0191903125e+05
    2.6778825559e-03    1.0192828125e+05
    2.7050296776e-03    1.0193935156e+05
    2.7321761008e-03    1.0194385156e+05
    2.7593218256e-03    1.0194035156e+05
    2.7864677832e-03    1.0192839844e+05
    2.8136142064e-03    1.0192614844e+05
    2.8407603968e-03    1.0191483594e+05
    2.8679079842e-03    1.0189897656e+05
    2.8950548731e-03    1.0187897656e+05
    2.9222022276e-03    1.0185868750e+05
    2.9493502807e-03    1.0185197656e+05
    2.9764990322e-03    1.0187391406e+05
    3.0036487151e-03    1.0191696094e+05
    3.0307997949e-03    1.0198153906e+05
    3.0579508748e-03    1.0206437500e+05
    3.0851035845e-03    1.0217005469e+05
    3.1122572254e-03    1.0227219531e+05
    3.1394117977e-03    1.0237296094e+05
    3.1665677670e-03    1.0246662500e+05
    3.1937246677e-03    1.0253134375e+05
    3.2208829653e-03    1.0255816406e+05
    3.2480424270e-03    1.0255044531e+05
    3.2752046827e-03    1.0251015625e+05
    3.2952371985e-03    1.0244275000e+05
    3.3145032357e-03    1.0237872656e+05
    3.3336398192e-03    1.0231185156e+05
    3.3528339118e-03    1.0224938281e+05
    3.3720366191e-03    1.0218268750e+05
    3.3912549261e-03    1.0211496875e+05
    3.4104890656e-03    1.0205357031e+05
    3.4297339153e-03    1.0198983594e+05
    3.4486323129e-03    1.0192146875e+05
    3.4671388566e-03    1.0183949219e+05
    3.4854323603e-03    1.0175521094e+05
    3.5036695190e-03    1.0166108594e+05
    3.5219141282e-03    1.0156159375e+05
    3.5401545465e-03    1.0145716406e+05
    3.5583588760e-03    1.0135289844e+05
    3.5765271168e-03    1.0125180469e+05
    3.5946895368e-03    1.0115972656e+05
    3.6139658187e-03    1.0107810156e+05
    3.6330535077e-03    1.0100764844e+05
    3.6521453876e-03    1.0095300781e+05
    3.6699753255e-03    1.0090847656e+05
    3.6875614896e-03    1.0087527344e+05
    3.7050142419e-03    1.0085331250e+05
    3.7224807311e-03    1.0083371875e+05
    3.7400643341e-03    1.0082071094e+05
    3.7577797193e-03    1.0080991406e+05
    3.7755726371e-03    1.0080816406e+05
    3.7933769636e-03    1.0080871094e+05
    3.8111612666e-03    1.0081889844e+05
    3.8289318327e-03    1.0083610156e+05
    3.8467168342e-03    1.0085563281e+05
    3.8645383902e-03    1.0087689844e+05
    3.8824023213e-03    1.0089728125e+05
    3.9002960548e-03    1.0091125000e+05
    3.9182156324e-03    1.0092484375e+05
    3.9361710660e-03    1.0093755469e+05
    3.9541716687e-03    1.0094664844e+05
    3.9733103476e-03    1.0095425000e+05
    3.9924201556e-03    1.0096296094e+05
    4.0104058571e-03    1.0096828906e+05
    4.0284004062e-03    1.0097915625e+05
    4.0464363992e-03    1.0100052344e+05
    4.0656095371e-03    1.0101439844e+05
    4.0847789496e-03    1.0103007031e+05
    4.1039343923e-03    1.0104685156e+05
    4.1219722480e-03    1.0106410156e+05
    4.1400394402e-03    1.0107686719e+05
    4.1591953486e-03    1.0109405469e+05
    4.1784178466e-03    1.0110227344e+05
    4.1976389475e-03    1.0111269531e+05
    4.2168586515e-03    1.0112030469e+05
    4.2360713705e-03    1.0112490625e+05
    4.2552771047e-03    1.0112896094e+05
    4.2744791135e-03    1.0112972656e+05
    4.2936825193e-03    1.0112938281e+05
    4.3128933758e-03    1.0112535156e+05
    4.3321144767e-03    1.0112458594e+05
    4.3513495475e-03    1.0111780469e+05
    4.3705995195e-03    1.0111640625e+05
    4.3898657896e-03    1.0111358594e+05
    4.4091497548e-03    1.0110671875e+05
    4.4284537435e-03    1.0109283594e+05
    4.4477786869e-03    1.0107631250e+05
    4.4671236537e-03    1.0105407031e+05
    4.4864914380e-03    1.0102589844e+05
    4.5058806427e-03    1.0099400000e+05
    4.5252908021e-03    1.0096093750e+05
    4.5447219163e-03    1.0091803906e+05
    4.5641721226e-03    1.0087902344e+05
    4.5836409554e-03    1.0082906250e+05
    4.6031279489e-03    1.0077974219e+05
    4.6226321720e-03    1.0073485156e+05
    4.6421540901e-03    1.0069300781e+05
    4.6616927721e-03    1.0065735156e+05
    4.6812482178e-03    1.0062438281e+05
    4.7008208930e-03    1.0059935156e+05
    4.7204112634e-03    1.0058280469e+05
    4.7400193289e-03    1.0057481250e+05
    4.7596455552e-03    1.0057103906e+05
    4.7792894766e-03    1.0057385156e+05
    4.7989510931e-03    1.0058341406e+05
    4.8186304048e-03    1.0059946875e+05
    4.8383255489e-03    1.0061236719e+05
    4.8580355942e-03    1.0063747656e+05
    4.8777610064e-03    1.0065619531e+05
    4.8975008540e-03    1.0068353906e+05
    4.9172551371e-03    1.0070758594e+05
    4.9370229244e-03    1.0073481250e+05
    4.9568060786e-03    1.0075785156e+05
    4.9766036682e-03    1.0078086719e+05
    4.9964170903e-03    1.0080383594e+05
    5.0162458792e-03    1.0082589844e+05
    5.0360900350e-03    1.0083771094e+05
    5.0559476949e-03    1.0084310156e+05
    5.0758207217e-03    1.0085087500e+05
    5.0957072526e-03    1.0084777344e+05
    5.1156077534e-03    1.0085213281e+05
    5.1355226897e-03    1.0085503906e+05
    5.1554525271e-03    1.0085225000e+05
    5.1753963344e-03    1.0084853906e+05
    5.1953555085e-03    1.0084356250e+05
    5.2153295837e-03    1.0083768750e+05
    5.2353194915e-03    1.0082699219e+05
    5.2553247660e-03    1.0081797656e+05
    5.2753463387e-03    1.0081371094e+05
    5.2953832783e-03    1.0081217969e+05
    5.3154369816e-03    1.0081134375e+05
    5.3355065174e-03    1.0081402344e+05
    5.3555918857e-03    1.0081557031e+05
    5.3756926209e-03    1.0081808594e+05
    5.3958082572e-03    1.0082132031e+05
    5.4159392603e-03    1.0083171094e+05
    5.4360851645e-03    1.0083588281e+05
    5.4562464356e-03    1.0084069531e+05
    5.4764230736e-03    1.0085031250e+05
    5.4966160096e-03    1.0086003906e+05
    5.5168238468e-03    1.0086508594e+05
    5.5370470509e-03    1.0087235156e+05
    5.5572865531e-03    1.0087953906e+05
    5.5775423534e-03    1.0088428906e+05
    5.5978130549e-03    1.0089146094e+05
    5.6181000546e-03    1.0089892969e+05
    5.6384028867e-03    1.0090433594e+05
    5.6587206200e-03    1.0091031250e+05
    5.6790532544e-03    1.0092386719e+05
    5.6994007900e-03    1.0093413281e+05
    5.7197632268e-03    1.0095046875e+05
    5.7401410304e-03    1.0097109375e+05
    5.7605337352e-03    1.0100096094e+05
    5.7809422724e-03    1.0105831250e+05
    5.8013652451e-03    1.0116091406e+05
    5.8218040504e-03    1.0138571094e+05
    5.8422577567e-03    1.0187516406e+05
    5.8627268299e-03    1.0295961719e+05
    5.8832112700e-03    1.0523988281e+05
    5.9037101455e-03    1.0958722656e+05
    5.9242248535e-03    1.1684659375e+05
    5.9447535314e-03    1.2716950000e+05
    5.9641525149e-03    1.3955129688e+05
    5.9830932878e-03    1.5119626562e+05
    6.0020405799e-03    1.6075648438e+05
    6.0210367665e-03    1.6745646875e+05
    6.0400799848e-03    1.7114264062e+05
    6.0591096990e-03    1.7233000000e+05
    6.0781282373e-03    1.7184476562e+05
    6.0972142965e-03    1.7043492188e+05
    6.1162756756e-03    1.6865978125e+05
    6.1353649944e-03    1.6676453125e+05
    6.1544459313e-03    1.6475878125e+05
    6.1734300107e-03    1.6257753125e+05
    6.1924448237e-03    1.6022739062e+05
    6.2115197070e-03    1.5774675000e+05
    6.2306127511e-03    1.5520559375e+05
    6.2497169711e-03    1.5268529688e+05
    6.2688281760e-03    1.5024435938e+05
    6.2879407778e-03    1.4791520312e+05
    6.3070552424e-03    1.4569781250e+05
    6.3261794858e-03    1.4360432812e+05
    6.3453060575e-03    1.4161912500e+05
    6.3644465990e-03    1.3972473438e+05
    6.3835908659e-03    1.3790151562e+05
    6.4027444459e-03    1.3613425000e+05
    6.4219115302e-03    1.3442518750e+05
    6.4410855994e-03    1.3277600000e+05
    6.4602680504e-03    1.3119932812e+05
    6.4794607460e-03    1.2970183594e+05
    6.4986641519e-03    1.2829628906e+05
    6.5178787336e-03    1.2697581250e+05
    6.5371058881e-03    1.2573385156e+05
    6.5563363023e-03    1.2455527344e+05
    6.5755699761e-03    1.2343953125e+05
    6.5948092379e-03    1.2237249219e+05
    6.6140629351e-03    1.2135575781e+05
    6.6333152354e-03    1.2038842969e+05
    6.6525745206e-03    1.1945828125e+05
    6.6718445159e-03    1.1856707031e+05
    6.6911154427e-03    1.1771597656e+05
    6.7104012705e-03    1.1689046094e+05
    6.7296870984e-03    1.1610161719e+05
    6.7489854991e-03    1.1534721094e+05
    6.7682852969e-03    1.1463814844e+05
    6.7875892855e-03    1.1397255469e+05
    6.8069072440e-03    1.1335488281e+05
    6.8262196146e-03    1.1278607031e+05
    6.8455408327e-03    1.1226687500e+05
    6.8648783490e-03    1.1180621875e+05
    6.8842126057e-03    1.1140325781e+05
    6.9035501219e-03    1.1105564844e+05
    6.9228983484e-03    1.1076085156e+05
    6.9422605447e-03    1.1051272656e+05
    6.9616222754e-03    1.1030809375e+05
    6.9809844717e-03    1.1014322656e+05
    7.0003494620e-03    1.1001785156e+05
    7.0197195746e-03    1.0992621094e+05
    7.0390999317e-03    1.0986558594e+05
    7.0584909990e-03    1.0983935156e+05
    7.0778946392e-03    1.0984247656e+05
    7.0973108523e-03    1.0987796094e+05
    7.1167377755e-03    1.0993808594e+05
    7.1361698210e-03    1.1001227344e+05
    7.1556069888e-03    1.1010541406e+05
    7.1750483476e-03    1.1021425000e+05
    7.1944966912e-03    1.1031913281e+05
    7.2139529511e-03    1.1042647656e+05
    7.2334166616e-03    1.1051746094e+05
    7.2528840974e-03    1.1059677344e+05
    7.2723543271e-03    1.1065486719e+05
    7.2918278165e-03    1.1069052344e+05
    7.3113050312e-03    1.1070141406e+05
    7.3307845742e-03    1.1069133594e+05
    7.3502692394e-03    1.1066853125e+05
    7.3697618209e-03    1.1063446875e+05
    7.3892641813e-03    1.1059353125e+05
    7.4087800458e-03    1.1055919531e+05
    7.4282912537e-03    1.1052619531e+05
    7.4477996677e-03    1.1049596094e+05
    7.4673094787e-03    1.1047571875e+05
    7.4868267402e-03    1.1047010156e+05
    7.5063589029e-03    1.1047322656e+05
    7.5258887373e-03    1.1048399219e+05
    7.5454111211e-03    1.1049919531e+05
    7.5649353676e-03    1.1051450000e+05
    7.5844703242e-03    1.1053210156e+05
    7.6040057465e-03    1.1054721094e+05
    7.6235276647e-03    1.1055122656e+05
    7.6430505142e-03    1.1054296875e+05
    7.6625877991e-03    1.1052377344e+05
    7.6821087860e-03    1.1049461719e+05
    7.7016241848e-03    1.1045502344e+05
    7.7211544849e-03    1.1040846094e+05
    7.7406810597e-03    1.1035609375e+05
    7.7602043748e-03    1.1029316406e+05
    7.7797495760e-03    1.1022739844e+05
    7.7992938459e-03    1.1015258594e+05
    7.8188432381e-03    1.1006916406e+05
    7.8384252265e-03    1.0998046094e+05
    7.8580006957e-03    1.0988464844e+05
    7.8775910661e-03    1.0977718750e+05
    7.8972103074e-03    1.0966952344e+05
    7.9168286175e-03    1.0956065625e+05
    7.9364804551e-03    1.0945821094e+05
    7.9561360180e-03    1.0935944531e+05
    7.9758102074e-03    1.0927478906e+05
    7.9955114052e-03    1.0920742969e+05
    8.0152126029e-03    1.0916147656e+05
    8.0349491909e-03    1.0913636719e+05
    8.0546662211e-03    1.0913360156e+05
    8.0743944272e-03    1.0914906250e+05
    8.0941170454e-03    1.0918057031e+05
    8.1138620153e-03    1.0921715625e+05
    8.1336386502e-03    1.0925927344e+05
    8.1534720957e-03    1.0929688281e+05
    8.1733558327e-03    1.0934302344e+05
    8.1932730973e-03    1.0936958594e+05
    8.2132071257e-03    1.0939072656e+05
    8.2330890000e-03    1.0940134375e+05
    8.2529615611e-03    1.0939550000e+05
    8.2727763802e-03    1.0938412500e+05
    8.2926023751e-03    1.0936389844e+05
    8.3124246448e-03    1.0933335156e+05
    8.3322748542e-03    1.0930035156e+05
    8.3521194756e-03    1.0926055469e+05
    8.3719678223e-03    1.0921349219e+05
    8.3917891607e-03    1.0916711719e+05
    8.4116021171e-03    1.0912289844e+05
    8.4314141423e-03    1.0907955469e+05
    8.4512168542e-03    1.0904274219e+05
    8.4710381925e-03    1.0900778906e+05
    8.4908353165e-03    1.0897646094e+05
    8.5106678307e-03    1.0894168750e+05
    8.5304882377e-03    1.0891125781e+05
    8.5503393784e-03    1.0887441406e+05
    8.5699046031e-03    1.0884375000e+05
    8.5892248899e-03    1.0880540625e+05
    8.6083402857e-03    1.0876259375e+05
    8.6272666231e-03    1.0871574219e+05
    8.6460309103e-03    1.0866350000e+05
    8.6646731943e-03    1.0861146094e+05
    8.6832325906e-03    1.0855081250e+05
    8.7017398328e-03    1.0849536719e+05
    8.7202098221e-03    1.0843589844e+05
    8.7386453524e-03    1.0837682031e+05
    8.7570473552e-03    1.0831983594e+05
    8.7753897533e-03    1.0826646094e+05
    8.7936492637e-03    1.0821861719e+05
    8.8118780404e-03    1.0817515625e+05
    8.8300397620e-03    1.0813640625e+05
    8.8481390849e-03    1.0810363281e+05
    8.8662039489e-03    1.0807584375e+05
    8.8842641562e-03    1.0804910156e+05
    8.9023411274e-03    1.0802988281e+05
    8.9204348624e-03    1.0800792969e+05
    8.9385388419e-03    1.0798485156e+05
    8.9566456154e-03    1.0796577344e+05
    8.9747514576e-03    1.0794077344e+05
    8.9928600937e-03    1.0791127344e+05
    9.0109808370e-03    1.0788282031e+05
    9.0291155502e-03    1.0785350781e+05
    9.0472688898e-03    1.0782096094e+05
    9.0654399246e-03    1.0778947656e+05
    9.0836230665e-03    1.0774721094e+05
    9.1018192470e-03    1.0771365625e+05
    9.1200266033e-03    1.0767519531e+05
    9.1382460669e-03    1.0763378125e+05
    9.1564757749e-03    1.0758700781e+05
    9.1747231781e-03    1.0753900781e+05
    9.1929892078e-03    1.0748972656e+05
    9.2112747952e-03    1.0743132031e+05
    9.2295790091e-03    1.0737717969e+05
    9.2479009181e-03    1.0731384375e+05
    9.2662386596e-03    1.0725290625e+05
    9.2845931649e-03    1.0718646094e+05
    9.3029672280e-03    1.0712827344e+05
    9.3213599175e-03    1.0706107031e+05
    9.3397712335e-03    1.0699509375e+05
    9.3582011759e-03    1.0692564844e+05
    9.3766497448e-03    1.0685196094e+05
    9.3951150775e-03    1.0677635156e+05
    9.4135999680e-03    1.0669924219e+05
    9.4321016222e-03    1.0662490625e+05
    9.4506228343e-03    1.0655549219e+05
    9.4691645354e-03    1.0649165625e+05
    9.4877239317e-03    1.0643221094e+05
    9.5063010231e-03    1.0637637500e+05
    9.5248948783e-03    1.0632531250e+05
    9.5435054973e-03    1.0627393750e+05
    9.5621328801e-03    1.0622736719e+05
    9.5807760954e-03    1.0617239844e+05
    9.5994332805e-03    1.0613577344e+05
    9.6181081608e-03    1.0609513281e+05
    9.6367979422e-03    1.0606400781e+05
    9.6555035561e-03    1.0603502344e+05
    9.6742231399e-03    1.0599878125e+05
    9.6929576248e-03    1.0597400000e+05
    9.7117051482e-03    1.0594135156e+05
    9.7304685041e-03    1.0591406250e+05
    9.7492448986e-03    1.0588431250e+05
    9.7680361941e-03    1.0585578906e+05
    9.7868405282e-03    1.0581896094e+05
    9.8056588322e-03    1.0578846094e+05
    9.8244920373e-03    1.0574752344e+05
    9.8433364183e-03    1.0570263281e+05
    9.8621929064e-03    1.0566296875e+05
    9.8810633644e-03    1.0561768750e+05
    9.8999459296e-03    1.0557167969e+05
    9.9188406020e-03    1.0552502344e+05
    9.9377483130e-03    1.0548139844e+05
    9.9566690624e-03    1.0543887500e+05
    9.9756028503e-03    1.0538585156e+05
    9.9945487455e-03    1.0532966406e+05
    1.0013507679e-02    1.0526766406e+05
    1.0032479651e-02    1.0520353906e+05
    1.0051463731e-02    1.0513542969e+05
    1.0070459917e-02    1.0505971094e+05
    1.0089469142e-02    1.0498757031e+05
    1.0108492337e-02    1.0490784375e+05
    1.0127528571e-02    1.0483353906e+05
    1.0146577843e-02    1.0475731250e+05
    1.0165639222e-02    1.0467964844e+05
    1.0184712708e-02    1.0461460156e+05
    1.0203798302e-02    1.0454966406e+05
    1.0222896002e-02    1.0449661719e+05
    1.0242006741e-02    1.0445312500e+05
    1.0261129588e-02    1.0441722656e+05
    1.0280264542e-02    1.0438957031e+05
    1.0299413465e-02    1.0436360156e+05
    1.0318575427e-02    1.0435164844e+05
    1.0337748565e-02    1.0433527344e+05
    1.0356934741e-02    1.0432177344e+05
    1.0376133956e-02    1.0431328125e+05
    1.0395346209e-02    1.0430760156e+05
    1.0414571501e-02    1.0429539844e+05
    1.0433809832e-02    1.0427727344e+05
    1.0453061201e-02    1.0425640625e+05
    1.0472324677e-02    1.0422860156e+05
    1.0491601191e-02    1.0420066406e+05
    1.0510892607e-02    1.0417275000e+05
    1.0530196130e-02    1.0414510156e+05
    1.0549513623e-02    1.0411813281e+05
    1.0568842292e-02    1.0409171875e+05
    1.0588183999e-02    1.0406978906e+05
    1.0607538745e-02    1.0404511719e+05
    1.0626907460e-02    1.0402660156e+05
    1.0646289214e-02    1.0400282031e+05
    1.0665684007e-02    1.0397958594e+05
    1.0685092770e-02    1.0395687500e+05
    1.0704516433e-02    1.0393653125e+05
    1.0723951273e-02    1.0392227344e+05
    1.0743400082e-02    1.0390133594e+05
    1.0762862861e-02    1.0387157031e+05
    1.0782338679e-02    1.0386080469e+05
    1.0801829398e-02    1.0384109375e+05
    1.0821334086e-02    1.0382622656e+05
    1.0840852745e-02    1.0381377344e+05
    1.0860386305e-02    1.0380588281e+05
    1.0879932903e-02    1.0379310156e+05
    1.0899493471e-02    1.0377721094e+05
    1.0919069871e-02    1.0377127344e+05
    1.0938662104e-02    1.0375635156e+05
    1.0958270170e-02    1.0374734375e+05
    1.0977892205e-02    1.0373327344e+05
    1.0997531936e-02    1.0371947656e+05
    1.1017187499e-02    1.0370617969e+05
    1.1036860757e-02    1.0369341406e+05
    1.1056551710e-02    1.0368091406e+05
    1.1076259427e-02    1.0366436719e+05
    1.1095987633e-02    1.0365183594e+05
    1.1115733534e-02    1.0363636719e+05
    1.1135498993e-02    1.0362074219e+05
    1.1155283079e-02    1.0360772656e+05
    1.1175086722e-02    1.0359008594e+05
    1.1194912717e-02    1.0357297656e+05
    1.1214758269e-02    1.0354547656e+05
    1.1234625243e-02    1.0351941406e+05
    1.1254511774e-02    1.0349234375e+05
    1.1274418794e-02    1.0346417969e+05
    1.1294347234e-02    1.0343497656e+05
    1.1314296164e-02    1.0340488281e+05
    1.1334266514e-02    1.0338119531e+05
    1.1354257353e-02    1.0335316406e+05
    1.1374268681e-02    1.0332160156e+05
    1.1394302361e-02    1.0328641406e+05
    1.1414355598e-02    1.0325009375e+05
    1.1434430256e-02    1.0321121094e+05
    1.1454525404e-02    1.0317491406e+05
    1.1474640109e-02    1.0314200781e+05
    1.1494777165e-02    1.0311761719e+05
    1.1514934711e-02    1.0310815625e+05
    1.1535113677e-02    1.0311686719e+05
    1.1555313133e-02    1.0314966406e+05
    1.1575534008e-02    1.0322133594e+05
    1.1595774442e-02    1.0333703125e+05
    1.1616035365e-02    1.0351665625e+05
    1.1636316776e-02    1.0378553906e+05
    1.1656619608e-02    1.0414265625e+05
    1.1676942930e-02    1.0461205469e+05
    1.1697287671e-02    1.0520516406e+05
    1.1717652902e-02    1.0591600000e+05
    1.1738038622e-02    1.0673091406e+05
    1.1758443899e-02    1.0761692969e+05
    1.1778870597e-02    1.0852239844e+05
    1.1799318716e-02    1.0939033594e+05
    1.1819788255e-02    1.1016146094e+05
    1.1840280145e-02    1.1076491406e+05
    1.1860790662e-02    1.1116481250e+05
    1.1881321669e-02    1.1134386719e+05
    1.1901874095e-02    1.1129375781e+05
    1.1922447011e-02    1.1103222656e+05
    1.1943042278e-02    1.1059727344e+05
    1.1963658035e-02    1.1001496875e+05
    1.1984295212e-02    1.0933732031e+05
    1.2004952878e-02    1.0860652344e+05
    1.2025631964e-02    1.0787690625e+05
    1.2046331540e-02    1.0718483594e+05
    1.2067052536e-02    1.0656802344e+05
    1.2087795883e-02    1.0603377344e+05
    1.2108558789e-02    1.0558025781e+05
    1.2129344046e-02    1.0519721094e+05
    1.2150149792e-02    1.0483946875e+05
    1.2170976959e-02    1.0449208594e+05
    1.2191825546e-02    1.0412563281e+05
    1.2212695554e-02    1.0372014844e+05
    1.2233586982e-02    1.0327871094e+05
    1.2254500762e-02    1.0279411719e+05
    1.2275436893e-02    1.0227412500e+05
    1.2296394445e-02    1.0173185156e+05
    1.2317374349e-02    1.0118827344e+05
    1.2338375673e-02    1.0065939844e+05
    1.2359398417e-02    1.0016175000e+05
    1.2380442582e-02    9.9706585938e+04
    1.2401508167e-02    9.9304437500e+04
    1.2422595173e-02    9.8953460938e+04
    1.2443703599e-02    9.8661757812e+04
    1.2464834377e-02    9.8420476562e+04
    1.2485986575e-02    9.8236843750e+04
    1.2507158332e-02    9.8102585938e+04
    1.2528351508e-02    9.8034335938e+04
    1.2549565174e-02    9.8017726562e+04
    1.2570801191e-02    9.8061460938e+04
    1.2592058629e-02    9.8151445312e+04
    1.2613337487e-02    9.8291445312e+04
    1.2634636834e-02    9.8480468750e+04
    1.2655957602e-02    9.8713031250e+04
    1.2677297927e-02    9.8981937500e+04
    1.2698660605e-02    9.9266343750e+04
    1.2720043771e-02    9.9565554688e+04
    1.2741449289e-02    9.9860656250e+04
    1.2762876227e-02    1.0014228906e+05
    1.2784325518e-02    1.0040017969e+05
    1.2805794366e-02    1.0062847656e+05
    1.2827285565e-02    1.0080912500e+05
    1.2848797254e-02    1.0095460156e+05
    1.2870330364e-02    1.0105510156e+05
    1.2891885825e-02    1.0111503906e+05
    1.2913462706e-02    1.0114699219e+05
    1.2935061008e-02    1.0115089844e+05
    1.2956679799e-02    1.0114668750e+05
    1.2978320010e-02    1.0113827344e+05
    1.2999981642e-02    1.0113616406e+05
    1.3021663763e-02    1.0114177344e+05
    1.3043368235e-02    1.0115978125e+05
    1.3065092266e-02    1.0119064844e+05
    1.3086837716e-02    1.0123031250e+05
    1.3108605519e-02    1.0127344531e+05
    1.3130392879e-02    1.0131915625e+05
    1.3152201660e-02    1.0136892969e+05
    1.3174032792e-02    1.0141774219e+05
    1.3195885345e-02    1.0146696875e+05
    1.3217759319e-02    1.0151158594e+05
    1.3239653781e-02    1.0156183594e+05
    1.3261569664e-02    1.0161261719e+05
    1.3283506967e-02    1.0165786719e+05
    1.3305463828e-02    1.0170371094e+05
    1.3327440247e-02    1.0174386719e+05
    1.3349435292e-02    1.0179282031e+05
    1.3371448033e-02    1.0183696094e+05
    1.3393475674e-02    1.0187486719e+05
    1.3415516354e-02    1.0191091406e+05
    1.3437564485e-02    1.0193483594e+05
    1.3459613547e-02    1.0194883594e+05
    1.3481658883e-02    1.0194897656e+05
    1.3503690250e-02    1.0194389844e+05
    1.3525702059e-02    1.0193359375e+05
    1.3547683135e-02    1.0191608594e+05
    1.3569628820e-02    1.0189381250e+05
    1.3591531664e-02    1.0187660156e+05
    1.3613392599e-02    1.0185618750e+05
    1.3635210693e-02    1.0183680469e+05
    1.3656994328e-02    1.0181119531e+05
    1.3678749092e-02    1.0179474219e+05
    1.3700488023e-02    1.0177980469e+05
    1.3722228818e-02    1.0176603906e+05
    1.3743981719e-02    1.0175458594e+05
    1.3765762560e-02    1.0174361719e+05
    1.3787578791e-02    1.0172709375e+05
    1.3809437864e-02    1.0171758594e+05
    1.3831341639e-02    1.0170375781e+05
    1.3853288256e-02    1.0169502344e+05
    1.3875273056e-02    1.0168814844e+05
    1.3897285797e-02    1.0167907031e+05
    1.3919321820e-02    1.0167885156e+05
    1.3941374607e-02    1.0167405469e+05
    1.3963440433e-02    1.0166835156e+05
    1.3985517435e-02    1.0166606250e+05
    1.4007603750e-02    1.0165511719e+05
    1.4029704034e-02    1.0164721094e+05
    1.4051820152e-02    1.0162983594e+05
    1.4073957689e-02    1.0161028906e+05
    1.4096121304e-02    1.0158856250e+05
    1.4118315652e-02    1.0156410156e+05
    1.4140545391e-02    1.0152785156e+05
    1.4162814245e-02    1.0148921094e+05
    1.4185124077e-02    1.0144862500e+05
    1.4207473956e-02    1.0140903125e+05
    1.4229862019e-02    1.0137262500e+05
    1.4252286404e-02    1.0133883594e+05
    1.4274741523e-02    1.0130722656e+05
    1.4297228307e-02    1.0127583594e+05
    1.4319745824e-02    1.0125166406e+05
    1.4342290349e-02    1.0122727344e+05
    1.4364863746e-02    1.0120289844e+05
    1.4387467876e-02    1.0117321094e+05
    1.4410103671e-02    1.0114463281e+05
    1.4432771131e-02    1.0111953125e+05
    1.4455472119e-02    1.0109372656e+05
    1.4478209428e-02    1.0106713281e+05
    1.4500979334e-02    1.0103585156e+05
    1.4523783699e-02    1.0100797656e+05
    1.4546621591e-02    1.0097046094e+05
    1.4569494873e-02    1.0093303906e+05
    1.4592399821e-02    1.0090505469e+05
    1.4615339227e-02    1.0087818750e+05
    1.4638305642e-02    1.0086152344e+05
    1.4661304653e-02    1.0084378125e+05
    1.4684336260e-02    1.0082297656e+05
    1.4707398601e-02    1.0080946094e+05
    1.4730494469e-02    1.0078764844e+05
    1.4753622934e-02    1.0076643750e+05
    1.4776783995e-02    1.0075540625e+05
    1.4799979515e-02    1.0075505469e+05
    1.4823205769e-02    1.0074766406e+05
    1.4846466482e-02    1.0074724219e+05
    1.4869757928e-02    1.0074781250e+05
    1.4893081971e-02    1.0075580469e+05
    1.4916437678e-02    1.0076646094e+05
    1.4939822257e-02    1.0078024219e+05
    1.4963239431e-02    1.0079656250e+05
    1.4986685477e-02    1.0081510156e+05
    1.5010161325e-02    1.0083389844e+05
    1.5033668838e-02    1.0084989844e+05
    1.5057205223e-02    1.0087458594e+05
    1.5080772340e-02    1.0089146875e+05
    1.5104367398e-02    1.0090908594e+05
    1.5127992257e-02    1.0092056250e+05
    1.5151646920e-02    1.0092900781e+05
    1.5175330453e-02    1.0093383594e+05
    1.5199041925e-02    1.0094080469e+05
    1.5222782269e-02    1.0093808594e+05
    1.5246548690e-02    1.0093969531e+05
    1.5270343982e-02    1.0093981250e+05
    1.5294168144e-02    1.0093549219e+05
    1.5318016522e-02    1.0093106250e+05
    1.5341891907e-02    1.0093575781e+05
    1.5365792438e-02    1.0094097656e+05
    1.5389721841e-02    1.0095185156e+05
    1.5413676389e-02    1.0096252344e+05
    1.5437657945e-02    1.0097503906e+05
    1.5461664647e-02    1.0099282031e+05
    1.5485695563e-02    1.0101121094e+05
    1.5509752557e-02    1.0103474219e+05
    1.5533835627e-02    1.0105617969e+05
    1.5557944775e-02    1.0108641406e+05
    1.5582079068e-02    1.0111277344e+05
    1.5606240369e-02    1.0114052344e+05
    1.5630424023e-02    1.0116881250e+05
    1.5654634684e-02    1.0119540625e+05
    1.5678871423e-02    1.0122228906e+05
    1.5703132376e-02    1.0124503906e+05
    1.5727419406e-02    1.0127316406e+05
    1.5751728788e-02    1.0129208594e+05
    1.5776060522e-02    1.0131058594e+05
    1.5800418332e-02    1.0132860156e+05
    1.5824800357e-02    1.0134393750e+05
    1.5849204734e-02    1.0135838281e+05
    1.5873633325e-02    1.0136721094e+05
    1.5898084268e-02    1.0137588281e+05
    1.5922557563e-02    1.0138177344e+05
    1.5947058797e-02    1.0139566406e+05
    1.5971582383e-02    1.0139769531e+05
    1.5996130183e-02    1.0139821875e+05
    1.6020702198e-02    1.0140133594e+05
    1.6045298427e-02    1.0139390625e+05
    1.6069920734e-02    1.0140171875e+05
    1.6094569117e-02    1.0139072656e+05
    1.6119243577e-02    1.0139696094e+05
    1.6143942252e-02    1.0139358594e+05
    1.6168667004e-02    1.0139440625e+05
    1.6193419695e-02    1.0139363281e+05
    1.6218200326e-02    1.0139410156e+05
    1.6243007034e-02    1.0140244531e+05
    1.6267839819e-02    1.0140705469e+05
    1.6292702407e-02    1.0141206250e+05
    1.6317596659e-02    1.0142680469e+05
    1.6342513263e-02    1.0144272656e+05
    1.6367461532e-02    1.0145250781e+05
    1.6392435879e-02    1.0146666406e+05
    1.6417443752e-02    1.0148424219e+05
    1.6442479566e-02    1.0150236719e+05
    1.6467543319e-02    1.0152100000e+05
    1.6492636874e-02    1.0153089844e+05
    1.6517756507e-02    1.0154553906e+05
    1.6542907804e-02    1.0154883594e+05
    1.6568088904e-02    1.0155978906e+05
    1.6593271866e-02    1.0156831250e+05
    1.6618426889e-02    1.0157440625e+05
    1.6643559560e-02    1.0157880469e+05
    1.6668669879e-02    1.0158166406e+05
    1.6693757847e-02    1.0157711719e+05
    1.6718825325e-02    1.0157122656e+05
    1.6743874177e-02    1.0157103125e+05
    1.6768900678e-02    1.0157625000e+05
    1.6793908551e-02    1.0157861719e+05
    1.6818899661e-02    1.0157568750e+05
    1.6843874007e-02    1.0157641406e+05
    1.6868829727e-02    1.0157283594e+05
    1.6893770546e-02    1.0157793750e+05
    1.6918692738e-02    1.0158291406e+05
    1.6943598166e-02    1.0158384375e+05
    1.6968490556e-02    1.0158303906e+05
    1.6993366182e-02    1.0158646094e+05
    1.7018226907e-02    1.0158933594e+05
    1.7043072730e-02    1.0158687500e+05
    1.7067901790e-02    1.0158384375e+05
    1.7092714086e-02    1.0158535156e+05
    1.7117511481e-02    1.0158838281e+05
    1.7142292112e-02    1.0158583594e+05
    1.7167057842e-02    1.0158502344e+05
    1.7191808671e-02    1.0158377344e+05
    1.7216544598e-02    1.0158209375e+05
    1.7241263762e-02    1.0158091406e+05
    1.7265968025e-02    1.0158983594e+05
    1.7290659249e-02    1.0159096094e+05
    1.7315333709e-02    1.0160190625e+05
    1.7339993268e-02    1.0160408594e+05
    1.7364639789e-02    1.0161622656e+05
    1.7389267683e-02    1.0162914844e+05
    1.7413880676e-02    1.0164831250e+05
    1.7438478768e-02    1.0166758594e+05
    1.7463061959e-02    1.0169636719e+05
    1.7487626523e-02    1.0173314844e+05
    1.7512176186e-02    1.0177419531e+05
    1.7536709085e-02    1.0181844531e+05
    1.7561223358e-02    1.0188500000e+05
    1.7585720867e-02    1.0195664844e+05
    1.7610201612e-02    1.0204830469e+05
    1.7634663731e-02    1.0214319531e+05
    1.7659107223e-02    1.0224980469e+05
    1.7683532089e-02    1.0235591406e+05
    1.7707940191e-02    1.0246571875e+05
    1.7732329667e-02    1.0256557031e+05
    1.7756698653e-02    1.0264764844e+05
    1.7781050876e-02    1.0272324219e+05
    1.7805384472e-02    1.0277500000e+05
    1.7829699442e-02    1.0279577344e+05
    1.7853999510e-02    1.0277846094e+05
    1.7878280953e-02    1.0272807031e+05
    1.7902545631e-02    1.0263655469e+05
    1.7926793545e-02    1.0251691406e+05
    1.7951028422e-02    1.0236157031e+05
    1.7975246534e-02    1.0216906250e+05
    1.7999447882e-02    1.0193546094e+05
    1.8023636192e-02    1.0168335156e+05
    1.8047811463e-02    1.0143580469e+05
    1.8071975559e-02    1.0119160156e+05
    1.8096126616e-02    1.0097143750e+05
    1.8120266497e-02    1.0076467969e+05
    1.8144397065e-02    1.0058759375e+05
    1.8168520182e-02    1.0043818750e+05
    1.8192630261e-02    1.0033138281e+05
    1.8216732889e-02    1.0026162500e+05
    1.8240824342e-02    1.0023384375e+05
    1.8264908344e-02    1.0024608594e+05
    1.8288983032e-02    1.0029341406e+05
    1.8313048407e-02    1.0036464844e+05
    1.8337102607e-02    1.0047522656e+05
    1.8361147493e-02    1.0060739844e+05
    1.8385183066e-02    1.0076358594e+05
    1.8409207463e-02    1.0092669531e+05
    1.8433224410e-02    1.0109800781e+05
    1.8457230181e-02    1.0126611719e+05
    1.8481226638e-02    1.0143438281e+05
    1.8505210057e-02    1.0159553125e+05
    1.8529184163e-02    1.0175102344e+05
    1.8553148955e-02    1.0189024219e+05
    1.8577100709e-02    1.0200691406e+05
    1.8601041287e-02    1.0210558594e+05
    1.8624972552e-02    1.0217968750e+05
    1.8648892641e-02    1.0223153906e+05
    1.8672801554e-02    1.0227171094e+05
    1.8696699291e-02    1.0229149219e+05
    1.8720587716e-02    1.0230010156e+05
    1.8744463101e-02    1.0230121094e+05
    1.8768329173e-02    1.0229853906e+05
    1.8792184070e-02    1.0230250781e+05
    1.8816027790e-02    1.0230172656e+05
    1.8839860335e-02    1.0230672656e+05
    1.8863683566e-02    1.0232128906e+05
    1.8887493759e-02    1.0233119531e+05
    1.8911294639e-02    1.0234662500e+05
    1.8935086206e-02    1.0235783594e+05
    1.8958866596e-02    1.0237049219e+05
    1.8982635811e-02    1.0238058594e+05
    1.9006397575e-02    1.0239367969e+05
    1.9030146301e-02    1.0239566406e+05
    1.9053885713e-02    1.0240542969e+05
    1.9077615812e-02    1.0240381250e+05
    1.9101334736e-02    1.0240012500e+05
    1.9125042483e-02    1.0239406250e+05
    1.9148740917e-02    1.0238617969e+05
    1.9172428176e-02    1.0237633594e+05
    1.9196104258e-02    1.0236887500e+05
    1.9219771028e-02    1.0235106250e+05
    1.9243424758e-02    1.0233478125e+05
    1.9267069176e-02    1.0231624219e+05
    1.9290700555e-02    1.0229538281e+05
    1.9314322621e-02    1.0226666406e+05
    1.9337931648e-02    1.0224114844e+05
    1.9361529499e-02    1.0221793750e+05
    1.9385114312e-02    1.0219492969e+05
    1.9408687949e-02    1.0217483594e+05
    1.9432250410e-02    1.0215858594e+05
    1.9455801696e-02    1.0214160156e+05
    1.9479339942e-02    1.0211990625e+05
    1.9502865151e-02    1.0210682031e+05
    1.9526379183e-02    1.0209364844e+05
    1.9549878314e-02    1.0208560156e+05
    1.9573366269e-02    1.0207946875e+05
    1.9596841186e-02    1.0207789844e+05
    1.9620303065e-02    1.0207653125e+05
    1.9643751904e-02    1.0206627344e+05
    1.9667187706e-02    1.0205621094e+05
    1.9690606743e-02    1.0204650781e+05
    1.9714014605e-02    1.0204158594e+05
    1.9737409428e-02    1.0204336719e+05
    1.9760791212e-02    1.0205118750e+05
    1.9784159958e-02    1.0204486719e+05
    1.9807513803e-02    1.0204800000e+05
    1.9830854610e-02    1.0204210156e+05
    1.9854182377e-02    1.0203649219e+05
    1.9877497107e-02    1.0203099219e+05
    1.9900798798e-02    1.0202597656e+05
    1.9924087450e-02    1.0203065625e+05
    1.9947361201e-02    1.0202643750e+05
    1.9970623776e-02    1.0202153906e+05
    1.9993871450e-02    1.0201664844e+05
    2.0017107949e-02    1.0201122656e+05
    2.0040329546e-02    1.0200630469e+05
    2.0063538104e-02    1.0200153906e+05
    2.0086731762e-02    1.0200432031e+05
    2.0109914243e-02    1.0199408594e+05
    2.0133081824e-02    1.0199777344e+05
    2.0156236365e-02    1.0199646094e+05
    2.0179376006e-02    1.0199381250e+05
    2.0202504471e-02    1.0200047656e+05
    2.0225618035e-02    1.0199767969e+05
    2.0248720422e-02    1.0199414844e+05
    2.0271807909e-02    1.0198299219e+05
    2.0294882357e-02    1.0197985156e+05
    2.0317947492e-02    1.0198271094e+05
    2.0340997726e-02    1.0197941406e+05
    2.0364036784e-02    1.0197435156e+05
    2.0387060940e-02    1.0196371094e+05
    2.0410073921e-02    1.0195981250e+05
    2.0433073863e-02    1.0195590625e+05
    2.0456060767e-02    1.0196182031e+05
    2.0479036495e-02    1.0195914844e+05
    2.0501999184e-02    1.0195616406e+05
    2.0524948835e-02    1.0195346094e+05
    2.0547885448e-02    1.0195074219e+05
    2.0570809022e-02    1.0194815625e+05
    2.0593719557e-02    1.0195283594e+05
    2.0616617054e-02    1.0195266406e+05
    2.0639499649e-02    1.0195078125e+05
    2.0662369207e-02    1.0194925781e+05
    2.0685223863e-02    1.0194835156e+05
    2.0708063617e-02    1.0195289844e+05
    2.0730890334e-02    1.0195677344e+05
    2.0753700286e-02    1.0195697656e+05
    2.0776495337e-02    1.0195741406e+05
    2.0799275488e-02    1.0196691406e+05
    2.0822042599e-02    1.0196710156e+05
    2.0844791085e-02    1.0196749219e+05
    2.0867524669e-02    1.0196781250e+05
    2.0890241489e-02    1.0196860156e+05
    2.0912945271e-02    1.0197505469e+05
    2.0935632288e-02    1.0197162500e+05
    2.0958306268e-02    1.0197384375e+05
    2.0980965346e-02    1.0198506250e+05
    2.1003607661e-02    1.0198721094e+05
    2.1026238799e-02    1.0198933594e+05
    2.1048855036e-02    1.0199133594e+05
    2.1071458235e-02    1.0199325781e+05
    2.1094048396e-02    1.0199496094e+05
    2.1116625518e-02    1.0199691406e+05
    2.1139191464e-02    1.0199927344e+05
    2.1161744371e-02    1.0200183594e+05
    2.1184286103e-02    1.0200996094e+05
    2.1206818521e-02    1.0200775781e+05
    2.1229337901e-02    1.0201028906e+05
    2.1251846105e-02    1.0201252344e+05
    2.1274344996e-02    1.0201486719e+05
    2.1296832711e-02    1.0201737500e+05
    2.1319312975e-02    1.0202271094e+05
    2.1341778338e-02    1.0202255469e+05
    2.1364232525e-02    1.0202403906e+05
    2.1386675537e-02    1.0202552344e+05
    2.1409107372e-02    1.0202703125e+05
    2.1431528032e-02    1.0202419531e+05
    2.1453931928e-02    1.0202013281e+05
    2.1476324648e-02    1.0202116406e+05
    2.1498700604e-02    1.0202228906e+05
    2.1521063522e-02    1.0202366406e+05
    2.1543409675e-02    1.0202514844e+05
    2.1565740928e-02    1.0203428125e+05
    2.1588053554e-02    1.0203822656e+05
    2.1610351279e-02    1.0203993750e+05
    2.1632634103e-02    1.0204136719e+05
    2.1654898301e-02    1.0204253906e+05
    2.1677147597e-02    1.0203972656e+05
    2.1699378267e-02    1.0204334375e+05
    2.1721594036e-02    1.0204739844e+05
    2.1743793041e-02    1.0204931250e+05
    2.1765975282e-02    1.0205113281e+05
    2.1788140759e-02    1.0205031250e+05
    2.1810289472e-02    1.0204908594e+05
    2.1832419559e-02    1.0205362500e+05
    2.1854531020e-02    1.0204940625e+05
    2.1876627579e-02    1.0204614844e+05
    2.1898705512e-02    1.0204664844e+05
    2.1920768544e-02    1.0204699219e+05
    2.1942811087e-02    1.0204546094e+05
    2.1964838728e-02    1.0204371094e+05
    2.1986849606e-02    1.0203853906e+05
    2.2008845583e-02    1.0203610156e+05
    2.2030822933e-02    1.0203335156e+05
    2.2052785382e-02    1.0203218750e+05
    2.2074732929e-02    1.0203475781e+05
    2.2096665576e-02    1.0203322656e+05
    2.2118583322e-02    1.0202497656e+05
    2.2140489891e-02    1.0202109375e+05
    2.2162377834e-02    1.0202959375e+05
    2.2184254602e-02    1.0202959375e+05
    2.2206118330e-02    1.0202452344e+05
    2.2227969021e-02    1.0202999219e+05
    2.2249806672e-02    1.0202999219e+05
    2.2271629423e-02    1.0202991406e+05
    2.2293440998e-02    1.0203541406e+05
    2.2315241396e-02    1.0203830469e+05
    2.2337028757e-02    1.0204714844e+05
    2.2358803079e-02    1.0205338281e+05
    2.2380566224e-02    1.0205593750e+05
    2.2402318195e-02    1.0205878125e+05
    2.2424057126e-02    1.0206196094e+05
    2.2445784882e-02    1.0206519531e+05
    2.2467501462e-02    1.0207399219e+05
    2.2489206865e-02    1.0207993750e+05
    2.2510899231e-02    1.0208592969e+05
    2.2532582283e-02    1.0208585156e+05
    2.2554252297e-02    1.0208946094e+05
    2.2575911134e-02    1.0209277344e+05
    2.2597560659e-02    1.0209734375e+05
    2.2619199008e-02    1.0209397656e+05
    2.2640828043e-02    1.0210627344e+05
    2.2662445903e-02    1.0209984375e+05
    2.2684050724e-02    1.0210221875e+05
    2.2705646232e-02    1.0210427344e+05
    2.2727232426e-02    1.0210408594e+05
    2.2748809308e-02    1.0210294531e+05
    2.2770375013e-02    1.0209740625e+05
    2.2791929543e-02    1.0209619531e+05
    2.2813472897e-02    1.0208910156e+05
    2.2835006937e-02    1.0208233594e+05
    2.2856531665e-02    1.0207908594e+05
    2.2878047079e-02    1.0207022656e+05
    2.2899549454e-02    1.0206141406e+05
    2.2921044379e-02    1.0205022656e+05
    2.2942528129e-02    1.0203869531e+05
    2.2964000702e-02    1.0202721875e+05
    2.2985465825e-02    1.0201487500e+05
    2.3006917909e-02    1.0200436719e+05
    2.3028360680e-02    1.0198932031e+05
    2.3049792275e-02    1.0197266406e+05
    2.3071214557e-02    1.0196071094e+05
    2.3092625663e-02    1.0194178906e+05
    2.3114029318e-02    1.0192672656e+05
    2.3135419935e-02    1.0191239844e+05
    2.3156799376e-02    1.0190250781e+05
    2.3178169504e-02    1.0189686719e+05
    2.3199530318e-02    1.0188975000e+05
    2.3220879957e-02    1.0188466406e+05
    2.3242218420e-02    1.0188419531e+05
    2.3263547570e-02    1.0188527344e+05
    2.3284865543e-02    1.0189222656e+05
    2.3306174204e-02    1.0190385156e+05
    2.3327469826e-02    1.0192287500e+05
    2.3348756135e-02    1.0194249219e+05
    2.3370031267e-02    1.0197197656e+05
    2.3391297087e-02    1.0200057031e+05
    2.3412553594e-02    1.0203058594e+05
    2.3433798924e-02    1.0206622656e+05
    2.3455033079e-02    1.0209877344e+05
    2.3476256058e-02    1.0214006250e+05
    2.3497469723e-02    1.0217342969e+05
    2.3518672213e-02    1.0220083594e+05
    2.3539865389e-02    1.0223692969e+05
    2.3561049253e-02    1.0227221875e+05
    2.3582221940e-02    1.0230791406e+05
    2.3603385314e-02    1.0234407031e+05
    2.3624535650e-02    1.0237077344e+05
    2.3645676672e-02    1.0239699219e+05
    2.3666808382e-02    1.0242265625e+05
    2.3687927052e-02    1.0244172656e+05
    2.3709038273e-02    1.0245516406e+05
    2.3730138317e-02    1.0247589844e+05
    2.3751227185e-02    1.0248564844e+05
    2.3772306740e-02    1.0248368750e+05
    2.3793375120e-02    1.0248067969e+05
    2.3814432323e-02    1.0247246875e+05
    2.3835480213e-02    1.0245940625e+05
    2.3856516927e-02    1.0244003125e+05
    2.3877544329e-02    1.0242278906e+05
    2.3898560554e-02    1.0239338281e+05
    2.3919565603e-02    1.0236594531e+05
    2.3940561339e-02    1.0232928906e+05
    2.3961545900e-02    1.0229243750e+05
    2.3982519284e-02    1.0224741406e+05
    2.4003483355e-02    1.0219633594e+05
    2.4024436250e-02    1.0214702344e+05
    2.4045377970e-02    1.0210144531e+05
    2.4066310376e-02    1.0206324219e+05
    2.4087233469e-02    1.0202783594e+05
    2.4108145386e-02    1.0199705469e+05
    2.4129044265e-02    1.0197133594e+05
    2.4149935693e-02    1.0195391406e+05
    2.4170814082e-02    1.0193875000e+05
    2.4191683158e-02    1.0193341406e+05
    2.4212542921e-02    1.0193371094e+05
    2.4233391508e-02    1.0194083594e+05
    2.4254228920e-02    1.0195450781e+05
    2.4275057018e-02    1.0196641406e+05
    2.4295873940e-02    1.0198187500e+05
    2.4316681549e-02    1.0199175781e+05
    2.4337477982e-02    1.0200975000e+05
    2.4358265102e-02    1.0201636719e+05
    2.4379042909e-02    1.0203252344e+05
    2.4399809539e-02    1.0205089844e+05
    2.4420566857e-02    1.0206252344e+05
    2.4441312999e-02    1.0207115625e+05
    2.4462047964e-02    1.0208180469e+05
    2.4482775480e-02    1.0208828125e+05
    2.4503491819e-02    1.0209399219e+05
    2.4524198845e-02    1.0209989844e+05
    2.4544894695e-02    1.0210464844e+05
    2.4565581232e-02    1.0211065625e+05
    2.4586258456e-02    1.0211558594e+05
    2.4606924504e-02    1.0212606250e+05
    2.4627581239e-02    1.0212731250e+05
    2.4648228660e-02    1.0213228125e+05
    2.4668866768e-02    1.0213775000e+05
    2.4689495564e-02    1.0214202344e+05
    2.4710113183e-02    1.0215109375e+05
    2.4730721489e-02    1.0215785156e+05
    2.4751318619e-02    1.0216828906e+05
    2.4771906435e-02    1.0217611719e+05
    2.4792486802e-02    1.0218321875e+05
    2.4813055992e-02    1.0218246094e+05
    2.4833614007e-02    1.0218583594e+05
    2.4854162708e-02    1.0218522656e+05
    2.4874702096e-02    1.0218914844e+05
    2.4895232171e-02    1.0218374219e+05
    2.4915752932e-02    1.0218696094e+05
    2.4936262518e-02    1.0218010156e+05
    2.4956764653e-02    1.0217747656e+05
    2.4977253750e-02    1.0217252344e+05
    2.4997735396e-02    1.0216296094e+05
    2.5018205866e-02    1.0216203906e+05
    2.5038668886e-02    1.0215152344e+05
    2.5059120730e-02    1.0214984375e+05
    2.5079563260e-02    1.0213871094e+05
    2.5099996477e-02    1.0213659375e+05
    2.5120420381e-02    1.0213003906e+05
    2.5140833110e-02    1.0212040625e+05
    2.5161236525e-02    1.0211602344e+05
    2.5181630626e-02    1.0211810156e+05
    2.5202017277e-02    1.0212228906e+05
    2.5222390890e-02    1.0212630469e+05
    2.5242757052e-02    1.0213208594e+05
    2.5263112038e-02    1.0213497656e+05
    2.5283459574e-02    1.0213803906e+05
    2.5303795934e-02    1.0214194531e+05
    2.5324124843e-02    1.0214996875e+05
    2.5344440714e-02    1.0215153125e+05
    2.5364749134e-02    1.0216196094e+05
    2.5385048240e-02    1.0216336719e+05
    2.5405339897e-02    1.0216463281e+05
    2.5425618514e-02    1.0216561719e+05
    2.5445887819e-02    1.0216610156e+05
    2.5466147810e-02    1.0216591406e+05
    2.5486400351e-02    1.0216553906e+05
    2.5506639853e-02    1.0216489844e+05
    2.5526873767e-02    1.0216365625e+05
    2.5547094643e-02    1.0216199219e+05
    2.5567308068e-02    1.0215982031e+05
    2.5587510318e-02    1.0215213281e+05
    2.5607703254e-02    1.0214963281e+05
    2.5627886876e-02    1.0214312500e+05
    2.5648061186e-02    1.0214058594e+05
    2.5668226182e-02    1.0214060156e+05
    2.5688380003e-02    1.0214487500e+05
    2.5708526373e-02    1.0213311719e+05
    2.5728661567e-02    1.0213046875e+05
    2.5748789310e-02    1.0212737500e+05
    2.5768904015e-02    1.0212435156e+05
    2.5789011270e-02    1.0212155469e+05
    2.5809109211e-02    1.0211930469e+05
    2.5829195976e-02    1.0211789844e+05
    2.5849273428e-02    1.0212246094e+05
    2.5869343430e-02    1.0212246094e+05
    2.5889402255e-02    1.0212946094e+05
    2.5909451768e-02    1.0213277344e+05
    2.5929493830e-02    1.0213327344e+05
    2.5949522853e-02    1.0212841406e+05
    2.5969544426e-02    1.0213122656e+05
    2.5989556685e-02    1.0213421875e+05
    2.6009559631e-02    1.0213471094e+05
    2.6029553264e-02    1.0213500000e+05
    2.6049537584e-02    1.0213910156e+05
    2.6069512591e-02    1.0213503906e+05
    2.6089478284e-02    1.0213481250e+05
    2.6109432802e-02    1.0213464844e+05
    2.6129379869e-02    1.0213458594e+05
    2.6149315760e-02    1.0213434375e+05
    2.6169244200e-02    1.0213400781e+05
    2.6189163327e-02    1.0213064844e+05
    2.6209073141e-02    1.0212688281e+05
    2.6228975505e-02    1.0212582031e+05
    2.6248866692e-02    1.0212764844e+05
    2.6268748567e-02    1.0212734375e+05
    2.6288621128e-02    1.0212477344e+05
    2.6308484375e-02    1.0212490625e+05
    2.6328338310e-02    1.0212740625e+05
    2.6348184794e-02    1.0212449219e+05
    2.6368021965e-02    1.0212411719e+05
    2.6387847960e-02    1.0212175000e+05
    2.6407664642e-02    1.0212166406e+05
    2.6427472010e-02    1.0212389844e+05
    2.6447271928e-02    1.0212430469e+05
    2.6467062533e-02    1.0212455469e+05
    2.6486843824e-02    1.0212472656e+05
    2.6506617665e-02    1.0212471875e+05
    2.6526380330e-02    1.0212478906e+05
    2.6546133682e-02    1.0212503125e+05
    2.6565877721e-02    1.0212810156e+05
    2.6585612446e-02    1.0212625781e+05
    2.6605339721e-02    1.0213216406e+05
    2.6625057682e-02    1.0213291406e+05
    2.6644766331e-02    1.0213353125e+05
    2.6664465666e-02    1.0213159375e+05
    2.6684155688e-02    1.0213217969e+05
    2.6703836396e-02    1.0213007031e+05
    2.6723509654e-02    1.0213992969e+05
    2.6743173599e-02    1.0213649219e+05
    2.6762828231e-02    1.0213159375e+05
    2.6782475412e-02    1.0213159375e+05
    2.6802113280e-02    1.0213412500e+05
    2.6821739972e-02    1.0213416406e+05
    2.6841359213e-02    1.0213183594e+05
    2.6860967278e-02    1.0213465625e+05
    2.6880569756e-02    1.0213227344e+05
    2.6900164783e-02    1.0213227344e+05
    2.6919748634e-02    1.0213200000e+05
    2.6939325035e-02    1.0213168750e+05
    2.6958892122e-02    1.0213127344e+05
    2.6978449896e-02    1.0213084375e+05
    2.6997998357e-02    1.0213035156e+05
    2.7017539367e-02    1.0213008594e+05
    2.7037071064e-02    1.0212999219e+05
    2.7056595311e-02    1.0213019531e+05
    2.7076110244e-02    1.0213064844e+05
    2.7095617726e-02    1.0213131250e+05
    2.7115115896e-02    1.0213210156e+05
    2.7134604752e-02    1.0213296094e+05
    2.7154086158e-02    1.0213347656e+05
    2.7173558250e-02    1.0213644531e+05
    2.7193021029e-02    1.0213946875e+05
    2.7212476358e-02    1.0213999219e+05
    2.7231922373e-02    1.0214065625e+05
    2.7251357213e-02    1.0214114844e+05
    2.7270786464e-02    1.0213602344e+05
    2.7290204540e-02    1.0213594531e+05
    2.7309613302e-02    1.0213575000e+05
    2.7329014614e-02    1.0213539844e+05
    2.7348404750e-02    1.0213463281e+05
    2.7367785573e-02    1.0213380469e+05
    2.7387158945e-02    1.0213112500e+05
    2.7406521142e-02    1.0213058594e+05
    2.7425874025e-02    1.0213016406e+05
    2.7445219457e-02    1.0212978125e+05
    2.7464553714e-02    1.0212737500e+05
    2.7483878657e-02    1.0212909375e+05
    2.7503194287e-02    1.0213110156e+05
    2.7522502467e-02    1.0213139844e+05
    2.7541799471e-02    1.0213156250e+05
    2.7561087161e-02    1.0213164844e+05
    2.7580365539e-02    1.0213166406e+05
    2.7599634603e-02    1.0213172656e+05
    2.7618894354e-02    1.0213194531e+05
    2.7638144791e-02    1.0213221875e+05
    2.7657385916e-02    1.0213297656e+05
    2.7676619589e-02    1.0213391406e+05
    2.7695843950e-02    1.0214008594e+05
    2.7715058997e-02    1.0213828906e+05
    2.7734262869e-02    1.0213615625e+05
    2.7753459290e-02    1.0213646094e+05
    2.7772648260e-02    1.0214199219e+05
    2.7791827917e-02    1.0214232031e+05
    2.7810998261e-02    1.0213735156e+05
    2.7830159292e-02    1.0213749219e+05
    2.7849311009e-02    1.0213775781e+05
    2.7868455276e-02    1.0213797656e+05
    2.7887590230e-02    1.0213796094e+05
    2.7906717733e-02    1.0213758594e+05
    2.7925835922e-02    1.0213514844e+05
    2.7944946662e-02    1.0213277344e+05
    2.7964048088e-02    1.0213238281e+05
    2.7983140200e-02    1.0213175000e+05
    2.8002224863e-02    1.0213089844e+05
    2.8021300212e-02    1.0212988281e+05
    2.8040368110e-02    1.0212903906e+05
    2.8059426695e-02    1.0212321094e+05
    2.8078475967e-02    1.0212250000e+05
    2.8097519651e-02    1.0212152344e+05
    2.8116554022e-02    1.0212053125e+05
    2.8135580942e-02    1.0211946875e+05
    2.8154598549e-02    1.0211852344e+05
    2.8173606843e-02    1.0211778906e+05
    2.8192607686e-02    1.0211728906e+05
    2.8211599216e-02    1.0211658594e+05
    2.8230583295e-02    1.0211585156e+05
    2.8249559924e-02    1.0211515625e+05
    2.8268527240e-02    1.0211457031e+05
    2.8287487105e-02    1.0211653125e+05
    2.8306435794e-02    1.0212281250e+05
    2.8325378895e-02    1.0212283594e+05
    2.8344312683e-02    1.0212303125e+05
    2.8363237157e-02    1.0212346094e+05
    2.8382156044e-02    1.0212378125e+05
    2.8401065618e-02    1.0212400781e+05
    2.8419965878e-02    1.0212425781e+05
    2.8438858688e-02    1.0212460156e+05
    2.8457742184e-02    1.0212746094e+05
    2.8476616368e-02    1.0212503125e+05
    2.8495483100e-02    1.0212513281e+05
    2.8514338657e-02    1.0212546094e+05
    2.8533160686e-02    1.0212869531e+05
    2.8551930562e-02    1.0212682031e+05
    2.8570635244e-02    1.0212750000e+05
    2.8589271009e-02    1.0212813281e+05
    2.8607837856e-02    1.0212847656e+05
    2.8626350686e-02    1.0212875000e+05
    2.8644818813e-02    1.0212903906e+05
    2.8663259000e-02    1.0212549219e+05
    2.8681686148e-02    1.0212585156e+05
    2.8700113297e-02    1.0212607031e+05
    2.8718546033e-02    1.0212619531e+05
    2.8736986220e-02    1.0212631250e+05
    2.8755431995e-02    1.0212650000e+05
    2.8773877770e-02    1.0212866406e+05
    2.8792314231e-02    1.0212690625e+05
    2.8810730204e-02    1.0212703906e+05
    2.8829116374e-02    1.0212721094e+05
    2.8847465292e-02    1.0212203125e+05
    2.8865773231e-02    1.0212197656e+05
    2.8884036466e-02    1.0212197656e+05
    2.8902258724e-02    1.0212202344e+05
    2.8920443729e-02    1.0212217969e+05
    2.8938598931e-02    1.0212752344e+05
    2.8956729919e-02    1.0212789844e+05
    2.8974846005e-02    1.0212825000e+05
    2.8992949054e-02    1.0212872656e+05
    2.9011042789e-02    1.0212418750e+05
    2.9029129073e-02    1.0212764844e+05
    2.9047204182e-02    1.0213125781e+05
    2.9065268114e-02    1.0213234375e+05
    2.9083315283e-02    1.0213325000e+05
    2.9101338238e-02    1.0213396094e+05
    2.9119335115e-02    1.0213213281e+05
    2.9137304053e-02    1.0213557031e+05
    2.9155241325e-02    1.0213639844e+05
    2.9173148796e-02    1.0214128125e+05
    2.9191024601e-02    1.0214222656e+05
    2.9208874330e-02    1.0213928906e+05
    2.9226697981e-02    1.0214042969e+05
    2.9244501144e-02    1.0214159375e+05
    2.9262285680e-02    1.0214466406e+05
    2.9280053452e-02    1.0214363281e+05
    2.9297806323e-02    1.0214646875e+05
    2.9315544292e-02    1.0214519531e+05
    2.9333265498e-02    1.0214591406e+05
    2.9350971803e-02    1.0214668750e+05
    2.9368655756e-02    1.0214746875e+05
    2.9386319220e-02    1.0214824219e+05
    2.9403960332e-02    1.0214911719e+05
    2.9421577230e-02    1.0214737500e+05
    2.9439168051e-02    1.0214564844e+05
    2.9456734657e-02    1.0214658594e+05
    2.9474277049e-02    1.0215272656e+05
    2.9491795227e-02    1.0215381250e+05
    2.9509292915e-02    1.0215475781e+05
    2.9526771978e-02    1.0215027344e+05
    2.9544232413e-02    1.0215071094e+05
    2.9561674222e-02    1.0215096875e+05
    2.9579099268e-02    1.0215112500e+05
    2.9596509412e-02    1.0214709375e+05
    2.9613900930e-02    1.0214413281e+05
    2.9631273821e-02    1.0214111719e+05
    2.9648626223e-02    1.0214061719e+05
    2.9665958136e-02    1.0214025000e+05
    2.9683271423e-02    1.0213789844e+05
    2.9700560495e-02    1.0213562500e+05
    2.9717829078e-02    1.0213506250e+05
    2.9735075310e-02    1.0213417969e+05
    2.9752301052e-02    1.0212789844e+05
    2.9769508168e-02    1.0212199219e+05
    2.9786696658e-02    1.0211447656e+05
    2.9803866521e-02    1.0210746094e+05
    2.9821017757e-02    1.0209919531e+05
    2.9838152230e-02    1.0209578906e+05
    2.9855269939e-02    1.0209252344e+05
    2.9872370884e-02    1.0208521094e+05
    2.9889453202e-02    1.0208184375e+05
    2.9906518757e-02    1.0207843750e+05
    2.9923565686e-02    1.0207508594e+05
    2.9940593988e-02    1.0207153125e+05
    2.9957601801e-02    1.0206268750e+05
    2.9974590987e-02    1.0205893750e+05
    2.9991561547e-02    1.0205531250e+05
    3.0008511618e-02    1.0205191406e+05
    3.0025444925e-02    1.0204859375e+05
    3.0042361468e-02    1.0204550000e+05
    3.0059259385e-02    1.0204990625e+05
    3.0076142401e-02    1.0204953906e+05
    3.0093006790e-02    1.0205272656e+05
    3.0109854415e-02    1.0205541406e+05
    3.0126683414e-02    1.0206399219e+05
    3.0143497512e-02    1.0206939844e+05
    3.0160292983e-02    1.0207946875e+05
    3.0177071691e-02    1.0208492969e+05
    3.0193833634e-02    1.0209200781e+05
    3.0210576952e-02    1.0209444531e+05
    3.0227303505e-02    1.0210133594e+05
    3.0244011432e-02    1.0210953906e+05
    3.0260702595e-02    1.0211503906e+05
    3.0277376994e-02    1.0212097656e+05
    3.0294034630e-02    1.0212763281e+05
    3.0310675502e-02    1.0213436719e+05
    3.0327299610e-02    1.0213862500e+05
    3.0343905091e-02    1.0214291406e+05
    3.0360495672e-02    1.0214717969e+05
    3.0377071351e-02    1.0215141406e+05
    3.0393628404e-02    1.0215559375e+05
    3.0410168692e-02    1.0215453906e+05
    3.0426690355e-02    1.0215415625e+05
    3.0443195254e-02    1.0215752344e+05
    3.0459685251e-02    1.0215540625e+05
    3.0476156622e-02    1.0215609375e+05
    3.0492611229e-02    1.0215631250e+05
    3.0509050936e-02    1.0215308594e+05
    3.0525473878e-02    1.0215471094e+05
    3.0541881919e-02    1.0215193750e+05
    3.0558273196e-02    1.0214789844e+05
    3.0574647710e-02    1.0214665625e+05
    3.0591005459e-02    1.0214494531e+05
    3.0607348308e-02    1.0213972656e+05
    3.0623674393e-02    1.0213715625e+05
    3.0639985576e-02    1.0213440625e+05
    3.0656279996e-02    1.0212822656e+05
    3.0672557652e-02    1.0212699219e+05
    3.0688818544e-02    1.0212146094e+05
    3.0705062672e-02    1.0211994531e+05
    3.0721291900e-02    1.0211821875e+05
    3.0737506226e-02    1.0211640625e+05
    3.0753703788e-02    1.0211460156e+05
    3.0769886449e-02    1.0211292969e+05
    3.0786054209e-02    1.0210881250e+05
    3.0802207068e-02    1.0210477344e+05
    3.0818343163e-02    1.0210328125e+05
    3.0834466219e-02    1.0210178906e+05
    3.0850572512e-02    1.0210021094e+05
    3.0866663903e-02    1.0209852344e+05
    3.0882738531e-02    1.0209689844e+05
    3.0898798257e-02    1.0210050781e+05
    3.0914843082e-02    1.0209908594e+05
    3.0930871144e-02    1.0209771094e+05
    3.0946886167e-02    1.0209625000e+05
    3.0962884426e-02    1.0209471875e+05
    3.0978867784e-02    1.0208788281e+05
    3.0994836241e-02    1.0208610156e+05
    3.1010789797e-02    1.0208428906e+05
    3.1026728451e-02    1.0208521875e+05
    3.1042650342e-02    1.0208358594e+05
    3.1058559194e-02    1.0208446875e+05
    3.1074455008e-02    1.0208283594e+05
    3.1090334058e-02    1.0207863281e+05
    3.1106200069e-02    1.0207714844e+05
    3.1122051179e-02    1.0207841406e+05
    3.1137887388e-02    1.0207724219e+05
    3.1153710559e-02    1.0207617969e+05
    3.1169516966e-02    1.0207509375e+05
    3.1185310334e-02    1.0207790625e+05
    3.1201090664e-02    1.0207664844e+05
    3.1216854230e-02    1.0207535156e+05
    3.1232602894e-02    1.0207424219e+05
    3.1248336658e-02    1.0207321094e+05
    3.1264055520e-02    1.0207236719e+05
    3.1279761344e-02    1.0207152344e+05
    3.1295452267e-02    1.0207075781e+05
    3.1311132014e-02    1.0207000000e+05
    3.1326796860e-02    1.0206935156e+05
    3.1342446804e-02    1.0206875781e+05
    3.1358085573e-02    1.0206809375e+05
    3.1373709440e-02    1.0206753906e+05
    3.1389318407e-02    1.0207240625e+05
    3.1404916197e-02    1.0207258594e+05
    3.1420499086e-02    1.0207511719e+05
    3.1436067075e-02    1.0208299219e+05
    3.1451620162e-02    1.0208394531e+05
    3.1467158347e-02    1.0208516406e+05
    3.1482685357e-02    1.0208666406e+05
    3.1498193741e-02    1.0208827344e+05
    3.1513694674e-02    1.0209003906e+05
    3.1529176980e-02    1.0209628125e+05
    3.1544648111e-02    1.0209878906e+05
    3.1560108066e-02    1.0210666406e+05
    3.1575553119e-02    1.0210989844e+05
    3.1590986997e-02    1.0211547656e+05
    3.1606405973e-02    1.0212147656e+05
    3.1621813774e-02    1.0212368750e+05
    3.1637206674e-02    1.0212614844e+05
    3.1652588397e-02    1.0213072656e+05
    3.1667951494e-02    1.0213938281e+05
    3.1683307141e-02    1.0214391406e+05
    3.1698647887e-02    1.0214422656e+05
    3.1713977456e-02    1.0214835156e+05
    3.1729292125e-02    1.0215227344e+05
    3.1744595617e-02    1.0215612500e+05
    3.1759884208e-02    1.0215994531e+05
    3.1775161624e-02    1.0216378125e+05
    3.1790427864e-02    1.0216753906e+05
    3.1805675477e-02    1.0216606250e+05
    3.1820915639e-02    1.0216953125e+05
    3.1836140901e-02    1.0217293750e+05
    3.1851354986e-02    1.0217392969e+05
    3.1866557896e-02    1.0217461719e+05
    3.1881745905e-02    1.0217703906e+05
    3.1896922737e-02    1.0217939844e+05
    3.1912088394e-02    1.0218182031e+05
    3.1927239150e-02    1.0218421094e+05
    3.1942378730e-02    1.0218653125e+05
    3.1957507133e-02    1.0218885156e+05
    3.1972620636e-02    1.0219121094e+05
    3.1987726688e-02    1.0219347656e+05
    3.2002814114e-02    1.0219032031e+05
    3.2017890364e-02    1.0219202344e+05
    3.2032959163e-02    1.0219139844e+05
    3.2048013061e-02    1.0219049219e+05
    3.2063052058e-02    1.0218603906e+05
    3.2078083605e-02    1.0218633594e+05
    3.2093103975e-02    1.0218646094e+05
    3.2108109444e-02    1.0218653906e+05
    3.2123107463e-02    1.0218653906e+05
    3.2138090581e-02    1.0218644531e+05
    3.2153062522e-02    1.0218616406e+05
    3.2168023288e-02    1.0218585156e+05
    3.2182972878e-02    1.0218542969e+05
    3.2197911292e-02    1.0218286719e+05
    3.2212834805e-02    1.0218031250e+05
    3.2227750868e-02    1.0217974219e+05
    3.2242652029e-02    1.0217933594e+05
    3.2257542014e-02    1.0217907031e+05
    3.2272424549e-02    1.0217897656e+05
    3.2287292182e-02    1.0217907031e+05
    3.2302148640e-02    1.0217913281e+05
    3.2316997647e-02    1.0217907031e+05
    3.2331831753e-02    1.0217619531e+05
    3.2346658409e-02    1.0217291406e+05
    3.2361470163e-02    1.0217188281e+05
    3.2376270741e-02    1.0217071094e+05
    3.2391063869e-02    1.0216955469e+05
    3.2405842096e-02    1.0216840625e+05
    3.2420612872e-02    1.0216725781e+05
    3.2435368747e-02    1.0216617969e+05
    3.2450113446e-02    1.0216518750e+05
    3.2464850694e-02    1.0216433594e+05
    3.2479573041e-02    1.0216362500e+05
    3.2494287938e-02    1.0216319531e+05
    3.2508991659e-02    1.0216789844e+05
    3.2523684204e-02    1.0216491406e+05
    3.2538365573e-02    1.0216174219e+05
    3.2553035766e-02    1.0216100000e+05
    3.2567698509e-02    1.0216021094e+05
    3.2582346350e-02    1.0215935156e+05
    3.2596986741e-02    1.0215838281e+05
    3.2611619681e-02    1.0215533594e+05
    3.2626237720e-02    1.0215203906e+05
    3.2640848309e-02    1.0215059375e+05
    3.2655447721e-02    1.0214896094e+05
    3.2670035958e-02    1.0214714844e+05
    3.2684613019e-02    1.0214524219e+05
    3.2699178904e-02    1.0214744531e+05
    3.2713737339e-02    1.0214356250e+05
    3.2728284597e-02    1.0213966406e+05
    3.2742820680e-02    1.0213778906e+05
    3.2757349312e-02    1.0213336719e+05
    3.2771866769e-02    1.0212891406e+05
    3.2786373049e-02    1.0212956250e+05
    3.2800871879e-02    1.0212780469e+05
    3.2815355808e-02    1.0212868750e+05
    3.2829832286e-02    1.0212703125e+05
    3.2844301313e-02    1.0212294531e+05
    3.2858755440e-02    1.0211893750e+05
    3.2873202115e-02    1.0211752344e+05
    3.2887637615e-02    1.0211610156e+05
    3.2902065665e-02    1.0211471875e+05
    3.2916482538e-02    1.0211328906e+05
    3.2930891961e-02    1.0211172656e+05
    3.2945290208e-02    1.0210985156e+05
    3.2959677279e-02    1.0210772656e+05
    3.2974056900e-02    1.0210540625e+05
    3.2988425344e-02    1.0210312500e+05
    3.3002786338e-02    1.0210100781e+05
    3.3017136157e-02    1.0209909375e+05
    3.3031478524e-02    1.0209727344e+05
    3.3045809716e-02    1.0209353125e+05
    3.3060129732e-02    1.0209185156e+05
    3.3074442297e-02    1.0209031250e+05
    3.3088747412e-02    1.0208880469e+05
    3.3103041351e-02    1.0208522656e+05
    3.3117324114e-02    1.0208769531e+05
    3.3131599426e-02    1.0208602344e+05
    3.3145863563e-02    1.0208227344e+05
    3.3160120249e-02    1.0208259375e+05
    3.3174365759e-02    1.0208096875e+05
    3.3188603818e-02    1.0207944531e+05
    3.3202830702e-02    1.0207813281e+05
    3.3217050135e-02    1.0207696875e+05
    3.3231258392e-02    1.0207600781e+05
    3.3245459199e-02    1.0208038281e+05
    3.3259648830e-02    1.0207983594e+05
    3.3273831010e-02    1.0207952344e+05
    3.3288005739e-02    1.0207919531e+05
    3.3302169293e-02    1.0207899219e+05
    3.3316325396e-02    1.0207883594e+05
    3.3330474049e-02    1.0207867969e+05
    3.3344611526e-02    1.0207863281e+05
    3.3358741552e-02    1.0207857031e+05
    3.3372864127e-02    1.0207866406e+05
    3.3386975527e-02    1.0207880469e+05
    3.3401079476e-02    1.0207896875e+05
    3.3415172249e-02    1.0208342969e+05
    3.3429257572e-02    1.0208393750e+05
    3.3443335444e-02    1.0208456250e+05
    3.3457405865e-02    1.0208542969e+05
    3.3471468836e-02    1.0208897656e+05
    3.3485524356e-02    1.0209274219e+05
    3.3499568701e-02    1.0209407031e+05
    3.3513605595e-02    1.0209294531e+05
    3.3527631313e-02    1.0209441406e+05
    3.3541653305e-02    1.0209592969e+05
    3.3555664122e-02    1.0209742969e+05
    3.3569667488e-02    1.0210140625e+05
    3.3583663404e-02    1.0210277344e+05
    3.3597648144e-02    1.0210403125e+05
    3.3611625433e-02    1.0210521094e+05
    3.3625595272e-02    1.0210383594e+05
    3.3639557660e-02    1.0210497656e+05
    3.3653512597e-02    1.0210856250e+05
    3.3667460084e-02    1.0210716406e+05
    3.3681396395e-02    1.0210828906e+05
    3.3695328981e-02    1.0210943750e+05
    3.3709254116e-02    1.0210814844e+05
    3.3723168075e-02    1.0210941406e+05
    3.3737078309e-02    1.0211075000e+05
    3.3750977367e-02    1.0211209375e+05
    3.3764872700e-02    1.0211339844e+05
    3.3778760582e-02    1.0211463281e+05
    3.3792637289e-02    1.0211569531e+05
    3.3806510270e-02    1.0211661719e+05
    3.3820372075e-02    1.0211728906e+05
    3.3834230155e-02    1.0211777344e+05
    3.3848077059e-02    1.0211805469e+05
    3.3861916512e-02    1.0211614844e+05
    3.3875752240e-02    1.0211606250e+05
    3.3889576793e-02    1.0211388281e+05
    3.3903393894e-02    1.0211383594e+05
    3.3917203546e-02    1.0211389844e+05
    3.3931009471e-02    1.0211402344e+05
    3.3944804221e-02    1.0211412500e+05
    3.3958595246e-02    1.0211171094e+05
    3.3972378820e-02    1.0210922656e+05
    3.3986151218e-02    1.0210922656e+05
    3.3999919891e-02    1.0210910156e+05
    3.4013681114e-02    1.0210888281e+05
    3.4027434886e-02    1.0211130469e+05
    3.4041177481e-02    1.0211383594e+05
    3.4054916352e-02    1.0211394531e+05
    3.4068647772e-02    1.0211421094e+05
    3.4082375467e-02    1.0211453906e+05
    3.4096091986e-02    1.0211503125e+05
    3.4109804779e-02    1.0211560156e+05
    3.4123510122e-02    1.0211619531e+05
    3.4137208015e-02    1.0211690625e+05
    3.4150898457e-02    1.0211771875e+05
    3.4164581448e-02    1.0211859375e+05
    3.4178260714e-02    1.0211957031e+05
    3.4191932529e-02    1.0212046094e+05
    3.4205596894e-02    1.0212341406e+05
    3.4219253808e-02    1.0212444531e+05
    3.4232903272e-02    1.0212544531e+05
    3.4246545285e-02    1.0212439844e+05
    3.4260183573e-02    1.0212539844e+05
    3.4273810685e-02    1.0212653906e+05
    3.4287434071e-02    1.0212978125e+05
    3.4301050007e-02    1.0212903906e+05
    3.4314658493e-02    1.0213239844e+05
    3.4328263253e-02    1.0213380469e+05
    3.4341860563e-02    1.0213522656e+05
    3.4355450422e-02    1.0213877344e+05
    3.4369036555e-02    1.0214027344e+05
    3.4382611513e-02    1.0214171094e+05
    3.4396182746e-02    1.0214305469e+05
    3.4409742802e-02    1.0214218750e+05
    3.4423299134e-02    1.0214124219e+05
    3.4436848015e-02    1.0214641406e+05
    3.4450393170e-02    1.0214747656e+05
    3.4463927150e-02    1.0214841406e+05
    3.4477461129e-02    1.0214517969e+05
    3.4490987659e-02    1.0214585156e+05
    3.4504506737e-02    1.0214642969e+05
    3.4518022090e-02    1.0214685156e+05
    3.4531529993e-02    1.0214714844e+05
    3.4545030445e-02    1.0214728906e+05
    3.4558523446e-02    1.0214482031e+05
    3.4572008997e-02    1.0214218750e+05
    3.4585487098e-02    1.0214200000e+05
    3.4598957747e-02    1.0214172656e+05
    3.4612424672e-02    1.0214132031e+05
    3.4625884145e-02    1.0214078906e+05
    3.4639336169e-02    1.0213997656e+05
    3.4652780741e-02    1.0213891406e+05
    3.4666225314e-02    1.0213341406e+05
    3.4679658711e-02    1.0213172656e+05
    3.4693088382e-02    1.0212964844e+05
    3.4706510603e-02    1.0212468750e+05
    3.4719929099e-02    1.0211947656e+05
    3.4733340144e-02    1.0211658594e+05
    3.4746743739e-02    1.0211359375e+05
    3.4760143608e-02    1.0211068750e+05
    3.4773536026e-02    1.0210784375e+05
    3.4786924720e-02    1.0210497656e+05
    3.4800305963e-02    1.0210208594e+05
    3.4813679755e-02    1.0209899219e+05
    3.4827046096e-02    1.0209578125e+05
    3.4840408713e-02    1.0209039844e+05
    3.4853763878e-02    1.0208484375e+05
    3.4867111593e-02    1.0208125781e+05
    3.4880455583e-02    1.0207753906e+05
    3.4893795848e-02    1.0207371094e+05
    3.4907124937e-02    1.0207200781e+05
    3.4920454025e-02    1.0206830469e+05
    3.4933775663e-02    1.0206258594e+05
    3.4947093576e-02    1.0205893750e+05
    3.4960404038e-02    1.0205535156e+05
    3.4973710775e-02    1.0205188281e+05
    3.4987010062e-02    1.0204866406e+05
endcurve
