Curveplot
LS-DYNA keyword deck by LS-PrePost                          
Time
Pressure
Defined Connection
Pressure @ 104 #pts=1745
* Minval=     9.9969562500e+04 at time=         0.0183851831
* Maxval=     1.6405065625e+05 at time=         0.0087017398
    0.0000000000e+00    9.9999093750e+04
    3.3812357287e-05    9.9999093750e+04
    6.1326652940e-05    9.9996914062e+04
    8.9102875791e-05    9.9997039062e+04
    1.1682785407e-04    1.0000182031e+05
    1.4461828687e-04    9.9999960938e+04
    1.7236733402e-04    1.0000264844e+05
    2.0016246708e-04    9.9998601562e+04
    2.2795486439e-04    1.0000137500e+05
    2.5574557367e-04    1.0000183594e+05
    2.8353667585e-04    1.0000221094e+05
    3.1133697485e-04    1.0000210156e+05
    3.3912662184e-04    9.9997085938e+04
    3.6691734567e-04    9.9994343750e+04
    3.9470891352e-04    1.0000109375e+05
    4.2249175021e-04    1.0000039844e+05
    4.5027161832e-04    1.0000441406e+05
    4.7804549104e-04    1.0000471094e+05
    5.0581363030e-04    9.9997992188e+04
    5.3357944125e-04    9.9996648438e+04
    5.6134146871e-04    1.0000007031e+05
    5.8909942163e-04    1.0000021094e+05
    6.1685312539e-04    1.0000253906e+05
    6.4460188150e-04    1.0000032031e+05
    6.7234638846e-04    1.0000265625e+05
    7.0008635521e-04    1.0000272656e+05
    7.2782178177e-04    1.0000030469e+05
    7.5555208605e-04    9.9999929688e+04
    7.8327720985e-04    9.9999570312e+04
    8.1099680392e-04    9.9989960938e+04
    8.3871174138e-04    9.9993898438e+04
    8.6642213864e-04    1.0000197656e+05
    8.9412782108e-04    1.0000847656e+05
    9.2182843946e-04    1.0001208594e+05
    9.4952445943e-04    1.0000128906e+05
    9.7721535712e-04    9.9993726562e+04
    1.0049008997e-03    9.9994914062e+04
    1.0325826006e-03    9.9999039062e+04
    1.0602590628e-03    1.0000616406e+05
    1.0879321489e-03    1.0000008594e+05
    1.1155996472e-03    1.0000142969e+05
    1.1432634201e-03    9.9994289062e+04
    1.1709230021e-03    9.9992531250e+04
    1.1985785095e-03    1.0000150781e+05
    1.2262313394e-03    1.0001097656e+05
    1.2538790470e-03    1.0000242969e+05
    1.2815232622e-03    1.0000305469e+05
    1.3091630535e-03    9.9999273438e+04
    1.3368004002e-03    9.9999710938e+04
    1.3644339051e-03    1.0000861719e+05
    1.3920635683e-03    1.0002437500e+05
    1.4196902048e-03    1.0005107031e+05
    1.4473132323e-03    1.0010665625e+05
    1.4749332331e-03    1.0019202344e+05
    1.5025498578e-03    1.0032791406e+05
    1.5301633393e-03    1.0051797656e+05
    1.5577742597e-03    1.0077416406e+05
    1.5853822697e-03    1.0110086719e+05
    1.6129877185e-03    1.0146881250e+05
    1.6405890929e-03    1.0186535156e+05
    1.6681876732e-03    1.0224878906e+05
    1.6957829939e-03    1.0259363281e+05
    1.7233766848e-03    1.0286597656e+05
    1.7509678146e-03    1.0305121094e+05
    1.7785291420e-03    1.0314503125e+05
    1.8060547300e-03    1.0313625000e+05
    1.8335470231e-03    1.0305391406e+05
    1.8610082334e-03    1.0291264844e+05
    1.8884401070e-03    1.0275178906e+05
    1.9158447394e-03    1.0258074219e+05
    1.9432241097e-03    1.0242039844e+05
    1.9705800805e-03    1.0229337500e+05
    1.9979148638e-03    1.0221636719e+05
    2.0252298564e-03    1.0219166406e+05
    2.0525271539e-03    1.0221402344e+05
    2.0798076876e-03    1.0227721875e+05
    2.1070730872e-03    1.0235287500e+05
    2.1343247499e-03    1.0242289844e+05
    2.1615643054e-03    1.0248103906e+05
    2.1887931507e-03    1.0251941406e+05
    2.2160108201e-03    1.0253603906e+05
    2.2432196420e-03    1.0253421094e+05
    2.2704207804e-03    1.0251552344e+05
    2.2976147011e-03    1.0248397656e+05
    2.3248014040e-03    1.0244652344e+05
    2.3519827519e-03    1.0241521875e+05
    2.3791582789e-03    1.0239532031e+05
    2.4063293822e-03    1.0238503906e+05
    2.4334960617e-03    1.0238635156e+05
    2.4606597144e-03    1.0239819531e+05
    2.4878205732e-03    1.0241235156e+05
    2.5149781723e-03    1.0242675781e+05
    2.5421329774e-03    1.0243634375e+05
    2.5692859199e-03    1.0244591406e+05
    2.5964374654e-03    1.0244677344e+05
    2.6235871483e-03    1.0244035156e+05
    2.6507352013e-03    1.0243662500e+05
    2.6778825559e-03    1.0243210156e+05
    2.7050296776e-03    1.0242300000e+05
    2.7321761008e-03    1.0242158594e+05
    2.7593218256e-03    1.0241550781e+05
    2.7864677832e-03    1.0241508594e+05
    2.8136142064e-03    1.0242614844e+05
    2.8407603968e-03    1.0243366406e+05
    2.8679079842e-03    1.0244307031e+05
    2.8950548731e-03    1.0246282031e+05
    2.9222022276e-03    1.0248992969e+05
    2.9493502807e-03    1.0252200000e+05
    2.9764990322e-03    1.0257135156e+05
    3.0036487151e-03    1.0263703906e+05
    3.0307997949e-03    1.0271593750e+05
    3.0579508748e-03    1.0281164844e+05
    3.0851035845e-03    1.0292432031e+05
    3.1122572254e-03    1.0302308594e+05
    3.1394117977e-03    1.0312036719e+05
    3.1665677670e-03    1.0320460156e+05
    3.1937246677e-03    1.0326025000e+05
    3.2208829653e-03    1.0329033594e+05
    3.2480424270e-03    1.0331297656e+05
    3.2752046827e-03    1.0329850781e+05
    3.2952371985e-03    1.0325681250e+05
    3.3145032357e-03    1.0322728906e+05
    3.3336398192e-03    1.0319093750e+05
    3.3528339118e-03    1.0314825781e+05
    3.3720366191e-03    1.0309714844e+05
    3.3912549261e-03    1.0305343750e+05
    3.4104890656e-03    1.0301439844e+05
    3.4297339153e-03    1.0297352344e+05
    3.4486323129e-03    1.0292868750e+05
    3.4671388566e-03    1.0288588281e+05
    3.4854323603e-03    1.0283225000e+05
    3.5036695190e-03    1.0277214844e+05
    3.5219141282e-03    1.0270771094e+05
    3.5401545465e-03    1.0263416406e+05
    3.5583588760e-03    1.0256600000e+05
    3.5765271168e-03    1.0249446094e+05
    3.5946895368e-03    1.0242750781e+05
    3.6139658187e-03    1.0237553906e+05
    3.6330535077e-03    1.0232310156e+05
    3.6521453876e-03    1.0228318750e+05
    3.6699753255e-03    1.0225172656e+05
    3.6875614896e-03    1.0222757031e+05
    3.7050142419e-03    1.0220589844e+05
    3.7224807311e-03    1.0219124219e+05
    3.7400643341e-03    1.0217889844e+05
    3.7577797193e-03    1.0216866406e+05
    3.7755726371e-03    1.0215328906e+05
    3.7933769636e-03    1.0214208594e+05
    3.8111612666e-03    1.0213728906e+05
    3.8289318327e-03    1.0212840625e+05
    3.8467168342e-03    1.0212789844e+05
    3.8645383902e-03    1.0212310156e+05
    3.8824023213e-03    1.0211713281e+05
    3.9002960548e-03    1.0210721094e+05
    3.9182156324e-03    1.0209157031e+05
    3.9361710660e-03    1.0207094531e+05
    3.9541716687e-03    1.0204877344e+05
    3.9733103476e-03    1.0203089844e+05
    3.9924201556e-03    1.0201303906e+05
    4.0104058571e-03    1.0199584375e+05
    4.0284004062e-03    1.0198914844e+05
    4.0464363992e-03    1.0198702344e+05
    4.0656095371e-03    1.0197935156e+05
    4.0847789496e-03    1.0197375781e+05
    4.1039343923e-03    1.0197330469e+05
    4.1219722480e-03    1.0196146094e+05
    4.1400394402e-03    1.0194725781e+05
    4.1591953486e-03    1.0193638281e+05
    4.1784178466e-03    1.0192534375e+05
    4.1976389475e-03    1.0191102344e+05
    4.2168586515e-03    1.0190882031e+05
    4.2360713705e-03    1.0191078906e+05
    4.2552771047e-03    1.0189946094e+05
    4.2744791135e-03    1.0189608594e+05
    4.2936825193e-03    1.0188537500e+05
    4.3128933758e-03    1.0186450781e+05
    4.3321144767e-03    1.0185260156e+05
    4.3513495475e-03    1.0183919531e+05
    4.3705995195e-03    1.0181375000e+05
    4.3898657896e-03    1.0179314844e+05
    4.4091497548e-03    1.0177482031e+05
    4.4284537435e-03    1.0175153906e+05
    4.4477786869e-03    1.0171988281e+05
    4.4671236537e-03    1.0168119531e+05
    4.4864914380e-03    1.0162955469e+05
    4.5058806427e-03    1.0156728906e+05
    4.5252908021e-03    1.0148783594e+05
    4.5447219163e-03    1.0139921094e+05
    4.5641721226e-03    1.0131194531e+05
    4.5836409554e-03    1.0121753906e+05
    4.6031279489e-03    1.0110756250e+05
    4.6226321720e-03    1.0099428125e+05
    4.6421540901e-03    1.0086950000e+05
    4.6616927721e-03    1.0073688281e+05
    4.6812482178e-03    1.0061231250e+05
    4.7008208930e-03    1.0049730469e+05
    4.7204112634e-03    1.0038911719e+05
    4.7400193289e-03    1.0030058594e+05
    4.7596455552e-03    1.0023318750e+05
    4.7792894766e-03    1.0018867969e+05
    4.7989510931e-03    1.0015674219e+05
    4.8186304048e-03    1.0014577344e+05
    4.8383255489e-03    1.0015452344e+05
    4.8580355942e-03    1.0018333594e+05
    4.8777610064e-03    1.0022569531e+05
    4.8975008540e-03    1.0028466406e+05
    4.9172551371e-03    1.0035233594e+05
    4.9370229244e-03    1.0041605469e+05
    4.9568060786e-03    1.0047019531e+05
    4.9766036682e-03    1.0052633594e+05
    4.9964170903e-03    1.0057265625e+05
    5.0162458792e-03    1.0061091406e+05
    5.0360900350e-03    1.0064912500e+05
    5.0559476949e-03    1.0066734375e+05
    5.0758207217e-03    1.0067971875e+05
    5.0957072526e-03    1.0068280469e+05
    5.1156077534e-03    1.0067458594e+05
    5.1355226897e-03    1.0066491406e+05
    5.1554525271e-03    1.0065253906e+05
    5.1753963344e-03    1.0063380469e+05
    5.1953555085e-03    1.0061635156e+05
    5.2153295837e-03    1.0059899219e+05
    5.2353194915e-03    1.0058518750e+05
    5.2553247660e-03    1.0057764844e+05
    5.2753463387e-03    1.0057428125e+05
    5.2953832783e-03    1.0056963281e+05
    5.3154369816e-03    1.0057837500e+05
    5.3355065174e-03    1.0058078125e+05
    5.3555918857e-03    1.0059389844e+05
    5.3756926209e-03    1.0059916406e+05
    5.3958082572e-03    1.0061433594e+05
    5.4159392603e-03    1.0062106250e+05
    5.4360851645e-03    1.0063572656e+05
    5.4562464356e-03    1.0064685156e+05
    5.4764230736e-03    1.0065847656e+05
    5.4966160096e-03    1.0066364844e+05
    5.5168238468e-03    1.0066682031e+05
    5.5370470509e-03    1.0066916406e+05
    5.5572865531e-03    1.0066946875e+05
    5.5775423534e-03    1.0066696875e+05
    5.5978130549e-03    1.0066878125e+05
    5.6181000546e-03    1.0067062500e+05
    5.6384028867e-03    1.0067258594e+05
    5.6587206200e-03    1.0067469531e+05
    5.6790532544e-03    1.0068644531e+05
    5.6994007900e-03    1.0068959375e+05
    5.7197632268e-03    1.0068630469e+05
    5.7401410304e-03    1.0068874219e+05
    5.7605337352e-03    1.0069122656e+05
    5.7809422724e-03    1.0069472656e+05
    5.8013652451e-03    1.0069575000e+05
    5.8218040504e-03    1.0070335156e+05
    5.8422577567e-03    1.0070649219e+05
    5.8627268299e-03    1.0071253906e+05
    5.8832112700e-03    1.0072628906e+05
    5.9037101455e-03    1.0073880469e+05
    5.9242248535e-03    1.0074759375e+05
    5.9447535314e-03    1.0075952344e+05
    5.9641525149e-03    1.0078142969e+05
    5.9830932878e-03    1.0079972656e+05
    6.0020405799e-03    1.0082603906e+05
    6.0210367665e-03    1.0085152344e+05
    6.0400799848e-03    1.0087628906e+05
    6.0591096990e-03    1.0091208594e+05
    6.0781282373e-03    1.0095005469e+05
    6.0972142965e-03    1.0099731250e+05
    6.1162756756e-03    1.0104397656e+05
    6.1353649944e-03    1.0109917969e+05
    6.1544459313e-03    1.0115761719e+05
    6.1734300107e-03    1.0122047656e+05
    6.1924448237e-03    1.0128318750e+05
    6.2115197070e-03    1.0135266406e+05
    6.2306127511e-03    1.0142653125e+05
    6.2497169711e-03    1.0150000781e+05
    6.2688281760e-03    1.0156916406e+05
    6.2879407778e-03    1.0163800781e+05
    6.3070552424e-03    1.0170460156e+05
    6.3261794858e-03    1.0175903906e+05
    6.3453060575e-03    1.0180852344e+05
    6.3644465990e-03    1.0184533594e+05
    6.3835908659e-03    1.0187435156e+05
    6.4027444459e-03    1.0189710156e+05
    6.4219115302e-03    1.0190778906e+05
    6.4410855994e-03    1.0189622656e+05
    6.4602680504e-03    1.0187403125e+05
    6.4794607460e-03    1.0183105469e+05
    6.4986641519e-03    1.0177647656e+05
    6.5178787336e-03    1.0170534375e+05
    6.5371058881e-03    1.0161613281e+05
    6.5563363023e-03    1.0151780469e+05
    6.5755699761e-03    1.0141578906e+05
    6.5948092379e-03    1.0129328906e+05
    6.6140629351e-03    1.0117444531e+05
    6.6333152354e-03    1.0104727344e+05
    6.6525745206e-03    1.0091846094e+05
    6.6718445159e-03    1.0080263281e+05
    6.6911154427e-03    1.0068886719e+05
    6.7104012705e-03    1.0058297656e+05
    6.7296870984e-03    1.0049114844e+05
    6.7489854991e-03    1.0041253125e+05
    6.7682852969e-03    1.0035085156e+05
    6.7875892855e-03    1.0029928906e+05
    6.8069072440e-03    1.0026121875e+05
    6.8262196146e-03    1.0023877344e+05
    6.8455408327e-03    1.0022478906e+05
    6.8648783490e-03    1.0022564844e+05
    6.8842126057e-03    1.0023947656e+05
    6.9035501219e-03    1.0025539844e+05
    6.9228983484e-03    1.0028703125e+05
    6.9422605447e-03    1.0031849219e+05
    6.9616222754e-03    1.0035409375e+05
    6.9809844717e-03    1.0040046094e+05
    7.0003494620e-03    1.0044444531e+05
    7.0197195746e-03    1.0048762500e+05
    7.0390999317e-03    1.0052110156e+05
    7.0584909990e-03    1.0055069531e+05
    7.0778946392e-03    1.0057531250e+05
    7.0973108523e-03    1.0059453906e+05
    7.1167377755e-03    1.0060866406e+05
    7.1361698210e-03    1.0062184375e+05
    7.1556069888e-03    1.0062683594e+05
    7.1750483476e-03    1.0063360156e+05
    7.1944966912e-03    1.0063509375e+05
    7.2139529511e-03    1.0063336719e+05
    7.2334166616e-03    1.0063171875e+05
    7.2528840974e-03    1.0062227344e+05
    7.2723543271e-03    1.0061646875e+05
    7.2918278165e-03    1.0061453906e+05
    7.3113050312e-03    1.0061214844e+05
    7.3307845742e-03    1.0061400000e+05
    7.3502692394e-03    1.0061364844e+05
    7.3697618209e-03    1.0061606250e+05
    7.3892641813e-03    1.0062860156e+05
    7.4087800458e-03    1.0064052344e+05
    7.4282912537e-03    1.0066341406e+05
    7.4477996677e-03    1.0068878125e+05
    7.4673094787e-03    1.0071700000e+05
    7.4868267402e-03    1.0074603906e+05
    7.5063589029e-03    1.0078290625e+05
    7.5258887373e-03    1.0082338281e+05
    7.5454111211e-03    1.0086321094e+05
    7.5649353676e-03    1.0090500000e+05
    7.5844703242e-03    1.0095916406e+05
    7.6040057465e-03    1.0101241406e+05
    7.6235276647e-03    1.0107285156e+05
    7.6430505142e-03    1.0113802344e+05
    7.6625877991e-03    1.0120522656e+05
    7.6821087860e-03    1.0127746875e+05
    7.7016241848e-03    1.0134953906e+05
    7.7211544849e-03    1.0142411719e+05
    7.7406810597e-03    1.0149603906e+05
    7.7602043748e-03    1.0156628906e+05
    7.7797495760e-03    1.0164214844e+05
    7.7992938459e-03    1.0171472656e+05
    7.8188432381e-03    1.0177389844e+05
    7.8384252265e-03    1.0184044531e+05
    7.8580006957e-03    1.0189315625e+05
    7.8775910661e-03    1.0194372656e+05
    7.8972103074e-03    1.0198021875e+05
    7.9168286175e-03    1.0201613281e+05
    7.9364804551e-03    1.0204346094e+05
    7.9561360180e-03    1.0206472656e+05
    7.9758102074e-03    1.0208346875e+05
    7.9955114052e-03    1.0209435156e+05
    8.0152126029e-03    1.0210271875e+05
    8.0349491909e-03    1.0210653906e+05
    8.0546662211e-03    1.0210977344e+05
    8.0743944272e-03    1.0210985156e+05
    8.0941170454e-03    1.0210978906e+05
    8.1138620153e-03    1.0211356250e+05
    8.1336386502e-03    1.0211116406e+05
    8.1534720957e-03    1.0211089844e+05
    8.1733558327e-03    1.0210366406e+05
    8.1932730973e-03    1.0210121094e+05
    8.2132071257e-03    1.0209896875e+05
    8.2330890000e-03    1.0209468750e+05
    8.2529615611e-03    1.0209164844e+05
    8.2727763802e-03    1.0208617969e+05
    8.2926023751e-03    1.0208037500e+05
    8.3124246448e-03    1.0207635156e+05
    8.3322748542e-03    1.0207274219e+05
    8.3521194756e-03    1.0206964844e+05
    8.3719678223e-03    1.0206732031e+05
    8.3917891607e-03    1.0208144531e+05
    8.4116021171e-03    1.0211628125e+05
    8.4314141423e-03    1.0219887500e+05
    8.4512168542e-03    1.0237096094e+05
    8.4710381925e-03    1.0271671094e+05
    8.4908353165e-03    1.0339231250e+05
    8.5106678307e-03    1.0465059375e+05
    8.5304882377e-03    1.0687627344e+05
    8.5503393784e-03    1.1057528906e+05
    8.5699046031e-03    1.1622053906e+05
    8.5892248899e-03    1.2387690625e+05
    8.6083402857e-03    1.3310514062e+05
    8.6272666231e-03    1.4284732812e+05
    8.6460309103e-03    1.5172495312e+05
    8.6646731943e-03    1.5851068750e+05
    8.6832325906e-03    1.6259182812e+05
    8.7017398328e-03    1.6405065625e+05
    8.7202098221e-03    1.6353223438e+05
    8.7386453524e-03    1.6180218750e+05
    8.7570473552e-03    1.5957726562e+05
    8.7753897533e-03    1.5750028125e+05
    8.7936492637e-03    1.5578693750e+05
    8.8118780404e-03    1.5450146875e+05
    8.8300397620e-03    1.5353723438e+05
    8.8481390849e-03    1.5272492188e+05
    8.8662039489e-03    1.5186843750e+05
    8.8842641562e-03    1.5084828125e+05
    8.9023411274e-03    1.4960045312e+05
    8.9204348624e-03    1.4811729688e+05
    8.9385388419e-03    1.4647525000e+05
    8.9566456154e-03    1.4475634375e+05
    8.9747514576e-03    1.4305162500e+05
    8.9928600937e-03    1.4142607812e+05
    9.0109808370e-03    1.3992182812e+05
    9.0291155502e-03    1.3854871875e+05
    9.0472688898e-03    1.3729670312e+05
    9.0654399246e-03    1.3614431250e+05
    9.0836230665e-03    1.3505873438e+05
    9.1018192470e-03    1.3401314062e+05
    9.1200266033e-03    1.3299776562e+05
    9.1382460669e-03    1.3200445312e+05
    9.1564757749e-03    1.3103339844e+05
    9.1747231781e-03    1.3009893750e+05
    9.1929892078e-03    1.2920274219e+05
    9.2112747952e-03    1.2835605469e+05
    9.2295790091e-03    1.2757553906e+05
    9.2479009181e-03    1.2685683594e+05
    9.2662386596e-03    1.2619812500e+05
    9.2845931649e-03    1.2559189844e+05
    9.3029672280e-03    1.2502443750e+05
    9.3213599175e-03    1.2449203125e+05
    9.3397712335e-03    1.2397236719e+05
    9.3582011759e-03    1.2346427344e+05
    9.3766497448e-03    1.2296810156e+05
    9.3951150775e-03    1.2246946875e+05
    9.4135999680e-03    1.2199216406e+05
    9.4321016222e-03    1.2152261719e+05
    9.4506228343e-03    1.2107517969e+05
    9.4691645354e-03    1.2064234375e+05
    9.4877239317e-03    1.2023358594e+05
    9.5063010231e-03    1.1984314844e+05
    9.5248948783e-03    1.1947153125e+05
    9.5435054973e-03    1.1911046094e+05
    9.5621328801e-03    1.1876727344e+05
    9.5807760954e-03    1.1843561719e+05
    9.5994332805e-03    1.1812096094e+05
    9.6181081608e-03    1.1781860156e+05
    9.6367979422e-03    1.1753232031e+05
    9.6555035561e-03    1.1726328906e+05
    9.6742231399e-03    1.1701196094e+05
    9.6929576248e-03    1.1677793750e+05
    9.7117051482e-03    1.1656130469e+05
    9.7304685041e-03    1.1635703906e+05
    9.7492448986e-03    1.1616581250e+05
    9.7680361941e-03    1.1598125000e+05
    9.7868405282e-03    1.1579931250e+05
    9.8056588322e-03    1.1562366406e+05
    9.8244920373e-03    1.1544268750e+05
    9.8433364183e-03    1.1527769531e+05
    9.8621929064e-03    1.1511064844e+05
    9.8810633644e-03    1.1494525781e+05
    9.8999459296e-03    1.1478278906e+05
    9.9188406020e-03    1.1462994531e+05
    9.9377483130e-03    1.1448396875e+05
    9.9566690624e-03    1.1434150000e+05
    9.9756028503e-03    1.1420678906e+05
    9.9945487455e-03    1.1407986719e+05
    1.0013507679e-02    1.1396085156e+05
    1.0032479651e-02    1.1385281250e+05
    1.0051463731e-02    1.1374780469e+05
    1.0070459917e-02    1.1364521094e+05
    1.0089469142e-02    1.1353858594e+05
    1.0108492337e-02    1.1343735156e+05
    1.0127528571e-02    1.1333518750e+05
    1.0146577843e-02    1.1323691406e+05
    1.0165639222e-02    1.1314369531e+05
    1.0184712708e-02    1.1305155469e+05
    1.0203798302e-02    1.1295846875e+05
    1.0222896002e-02    1.1287342969e+05
    1.0242006741e-02    1.1278781250e+05
    1.0261129588e-02    1.1269812500e+05
    1.0280264542e-02    1.1260518750e+05
    1.0299413465e-02    1.1251269531e+05
    1.0318575427e-02    1.1241108594e+05
    1.0337748565e-02    1.1230538281e+05
    1.0356934741e-02    1.1220010156e+05
    1.0376133956e-02    1.1208493750e+05
    1.0395346209e-02    1.1197444531e+05
    1.0414571501e-02    1.1185303906e+05
    1.0433809832e-02    1.1172358594e+05
    1.0453061201e-02    1.1160119531e+05
    1.0472324677e-02    1.1148443750e+05
    1.0491601191e-02    1.1136972656e+05
    1.0510892607e-02    1.1126718750e+05
    1.0530196130e-02    1.1117410156e+05
    1.0549513623e-02    1.1108640625e+05
    1.0568842292e-02    1.1101597656e+05
    1.0588183999e-02    1.1096490625e+05
    1.0607538745e-02    1.1092196094e+05
    1.0626907460e-02    1.1088916406e+05
    1.0646289214e-02    1.1086228906e+05
    1.0665684007e-02    1.1083447656e+05
    1.0685092770e-02    1.1081702344e+05
    1.0704516433e-02    1.1078893750e+05
    1.0723951273e-02    1.1076184375e+05
    1.0743400082e-02    1.1072722656e+05
    1.0762862861e-02    1.1069315625e+05
    1.0782338679e-02    1.1065166406e+05
    1.0801829398e-02    1.1060188281e+05
    1.0821334086e-02    1.1055613281e+05
    1.0840852745e-02    1.1049635156e+05
    1.0860386305e-02    1.1043931250e+05
    1.0879932903e-02    1.1038563281e+05
    1.0899493471e-02    1.1032783594e+05
    1.0919069871e-02    1.1027278125e+05
    1.0938662104e-02    1.1022589844e+05
    1.0958270170e-02    1.1017661719e+05
    1.0977892205e-02    1.1012846094e+05
    1.0997531936e-02    1.1007849219e+05
    1.1017187499e-02    1.1003078906e+05
    1.1036860757e-02    1.0998599219e+05
    1.1056551710e-02    1.0994197656e+05
    1.1076259427e-02    1.0989910156e+05
    1.1095987633e-02    1.0984964844e+05
    1.1115733534e-02    1.0981034375e+05
    1.1135498993e-02    1.0976360156e+05
    1.1155283079e-02    1.0971922656e+05
    1.1175086722e-02    1.0966811719e+05
    1.1194912717e-02    1.0962041406e+05
    1.1214758269e-02    1.0957583594e+05
    1.1234625243e-02    1.0953166406e+05
    1.1254511774e-02    1.0948924219e+05
    1.1274418794e-02    1.0945164844e+05
    1.1294347234e-02    1.0941208594e+05
    1.1314296164e-02    1.0937439844e+05
    1.1334266514e-02    1.0933002344e+05
    1.1354257353e-02    1.0928539844e+05
    1.1374268681e-02    1.0923632031e+05
    1.1394302361e-02    1.0919069531e+05
    1.1414355598e-02    1.0913837500e+05
    1.1434430256e-02    1.0908437500e+05
    1.1454525404e-02    1.0903028906e+05
    1.1474640109e-02    1.0897202344e+05
    1.1494777165e-02    1.0891839844e+05
    1.1514934711e-02    1.0886346094e+05
    1.1535113677e-02    1.0880568750e+05
    1.1555313133e-02    1.0874677344e+05
    1.1575534008e-02    1.0868953906e+05
    1.1595774442e-02    1.0862890625e+05
    1.1616035365e-02    1.0856613281e+05
    1.1636316776e-02    1.0850585156e+05
    1.1656619608e-02    1.0844672656e+05
    1.1676942930e-02    1.0839015625e+05
    1.1697287671e-02    1.0833425781e+05
    1.1717652902e-02    1.0827531250e+05
    1.1738038622e-02    1.0820789844e+05
    1.1758443899e-02    1.0813808594e+05
    1.1778870597e-02    1.0807415625e+05
    1.1799318716e-02    1.0801113281e+05
    1.1819788255e-02    1.0795803906e+05
    1.1840280145e-02    1.0791181250e+05
    1.1860790662e-02    1.0786285156e+05
    1.1881321669e-02    1.0781653906e+05
    1.1901874095e-02    1.0776597656e+05
    1.1922447011e-02    1.0771215625e+05
    1.1943042278e-02    1.0765171094e+05
    1.1963658035e-02    1.0759986719e+05
    1.1984295212e-02    1.0754596094e+05
    1.2004952878e-02    1.0748878125e+05
    1.2025631964e-02    1.0743800000e+05
    1.2046331540e-02    1.0737403125e+05
    1.2067052536e-02    1.0730828906e+05
    1.2087795883e-02    1.0723827344e+05
    1.2108558789e-02    1.0716447656e+05
    1.2129344046e-02    1.0710408594e+05
    1.2150149792e-02    1.0703478906e+05
    1.2170976959e-02    1.0697703906e+05
    1.2191825546e-02    1.0692010156e+05
    1.2212695554e-02    1.0686241406e+05
    1.2233586982e-02    1.0680777344e+05
    1.2254500762e-02    1.0676005469e+05
    1.2275436893e-02    1.0671935156e+05
    1.2296394445e-02    1.0668214844e+05
    1.2317374349e-02    1.0665274219e+05
    1.2338375673e-02    1.0663022656e+05
    1.2359398417e-02    1.0660035156e+05
    1.2380442582e-02    1.0656883594e+05
    1.2401508167e-02    1.0653990625e+05
    1.2422595173e-02    1.0650200000e+05
    1.2443703599e-02    1.0646202344e+05
    1.2464834377e-02    1.0641500000e+05
    1.2485986575e-02    1.0637267969e+05
    1.2507158332e-02    1.0631708594e+05
    1.2528351508e-02    1.0624897656e+05
    1.2549565174e-02    1.0618868750e+05
    1.2570801191e-02    1.0611949219e+05
    1.2592058629e-02    1.0605700781e+05
    1.2613337487e-02    1.0598322656e+05
    1.2634636834e-02    1.0591110156e+05
    1.2655957602e-02    1.0583635156e+05
    1.2677297927e-02    1.0576746094e+05
    1.2698660605e-02    1.0569875000e+05
    1.2720043771e-02    1.0563182031e+05
    1.2741449289e-02    1.0555877344e+05
    1.2762876227e-02    1.0548097656e+05
    1.2784325518e-02    1.0539910156e+05
    1.2805794366e-02    1.0531240625e+05
    1.2827285565e-02    1.0522607031e+05
    1.2848797254e-02    1.0513311719e+05
    1.2870330364e-02    1.0504041406e+05
    1.2891885825e-02    1.0495000000e+05
    1.2913462706e-02    1.0485552344e+05
    1.2935061008e-02    1.0476633594e+05
    1.2956679799e-02    1.0468886719e+05
    1.2978320010e-02    1.0462737500e+05
    1.2999981642e-02    1.0457287500e+05
    1.3021663763e-02    1.0452577344e+05
    1.3043368235e-02    1.0449427344e+05
    1.3065092266e-02    1.0446188281e+05
    1.3086837716e-02    1.0444539844e+05
    1.3108605519e-02    1.0442837500e+05
    1.3130392879e-02    1.0441197656e+05
    1.3152201660e-02    1.0439558594e+05
    1.3174032792e-02    1.0437150000e+05
    1.3195885345e-02    1.0434797656e+05
    1.3217759319e-02    1.0432005469e+05
    1.3239653781e-02    1.0427833594e+05
    1.3261569664e-02    1.0423927344e+05
    1.3283506967e-02    1.0419308594e+05
    1.3305463828e-02    1.0415056250e+05
    1.3327440247e-02    1.0410577344e+05
    1.3349435292e-02    1.0407046094e+05
    1.3371448033e-02    1.0403297656e+05
    1.3393475674e-02    1.0399225000e+05
    1.3415516354e-02    1.0395783594e+05
    1.3437564485e-02    1.0392600000e+05
    1.3459613547e-02    1.0390087500e+05
    1.3481658883e-02    1.0386725000e+05
    1.3503690250e-02    1.0384371094e+05
    1.3525702059e-02    1.0381002344e+05
    1.3547683135e-02    1.0377538281e+05
    1.3569628820e-02    1.0374944531e+05
    1.3591531664e-02    1.0371949219e+05
    1.3613392599e-02    1.0368757031e+05
    1.3635210693e-02    1.0365747656e+05
    1.3656994328e-02    1.0363260156e+05
    1.3678749092e-02    1.0360344531e+05
    1.3700488023e-02    1.0357480469e+05
    1.3722228818e-02    1.0355322656e+05
    1.3743981719e-02    1.0351646094e+05
    1.3765762560e-02    1.0348838281e+05
    1.3787578791e-02    1.0344803906e+05
    1.3809437864e-02    1.0341659375e+05
    1.3831341639e-02    1.0338652344e+05
    1.3853288256e-02    1.0336593750e+05
    1.3875273056e-02    1.0336110156e+05
    1.3897285797e-02    1.0338278125e+05
    1.3919321820e-02    1.0342686719e+05
    1.3941374607e-02    1.0351771094e+05
    1.3963440433e-02    1.0366596094e+05
    1.3985517435e-02    1.0389196094e+05
    1.4007603750e-02    1.0419985156e+05
    1.4029704034e-02    1.0461622656e+05
    1.4051820152e-02    1.0514081250e+05
    1.4073957689e-02    1.0578471094e+05
    1.4096121304e-02    1.0654640625e+05
    1.4118315652e-02    1.0739777344e+05
    1.4140545391e-02    1.0831647656e+05
    1.4162814245e-02    1.0923577344e+05
    1.4185124077e-02    1.1011535156e+05
    1.4207473956e-02    1.1087340625e+05
    1.4229862019e-02    1.1145491406e+05
    1.4252286404e-02    1.1181632031e+05
    1.4274741523e-02    1.1195460156e+05
    1.4297228307e-02    1.1185602344e+05
    1.4319745824e-02    1.1155430469e+05
    1.4342290349e-02    1.1107958594e+05
    1.4364863746e-02    1.1046189844e+05
    1.4387467876e-02    1.0976699219e+05
    1.4410103671e-02    1.0904006250e+05
    1.4432771131e-02    1.0833991406e+05
    1.4455472119e-02    1.0771155469e+05
    1.4478209428e-02    1.0718280469e+05
    1.4500979334e-02    1.0675761719e+05
    1.4523783699e-02    1.0643533594e+05
    1.4546621591e-02    1.0617440625e+05
    1.4569494873e-02    1.0594921875e+05
    1.4592399821e-02    1.0571490625e+05
    1.4615339227e-02    1.0545015625e+05
    1.4638305642e-02    1.0513117969e+05
    1.4661304653e-02    1.0476081250e+05
    1.4684336260e-02    1.0432222656e+05
    1.4707398601e-02    1.0384850000e+05
    1.4730494469e-02    1.0335616406e+05
    1.4753622934e-02    1.0287714844e+05
    1.4776783995e-02    1.0243096094e+05
    1.4799979515e-02    1.0204728125e+05
    1.4823205769e-02    1.0172797656e+05
    1.4846466482e-02    1.0148564844e+05
    1.4869757928e-02    1.0132227344e+05
    1.4893081971e-02    1.0123422656e+05
    1.4916437678e-02    1.0120758594e+05
    1.4939822257e-02    1.0122349219e+05
    1.4963239431e-02    1.0127046094e+05
    1.4986685477e-02    1.0133421094e+05
    1.5010161325e-02    1.0139388281e+05
    1.5033668838e-02    1.0144534375e+05
    1.5057205223e-02    1.0147253906e+05
    1.5080772340e-02    1.0146562500e+05
    1.5104367398e-02    1.0142932031e+05
    1.5127992257e-02    1.0136135156e+05
    1.5151646920e-02    1.0126933594e+05
    1.5175330453e-02    1.0115696875e+05
    1.5199041925e-02    1.0103678906e+05
    1.5222782269e-02    1.0091475000e+05
    1.5246548690e-02    1.0080906250e+05
    1.5270343982e-02    1.0071022656e+05
    1.5294168144e-02    1.0062503906e+05
    1.5318016522e-02    1.0056037500e+05
    1.5341891907e-02    1.0050627344e+05
    1.5365792438e-02    1.0046827344e+05
    1.5389721841e-02    1.0043800000e+05
    1.5413676389e-02    1.0042953125e+05
    1.5437657945e-02    1.0042358594e+05
    1.5461664647e-02    1.0042761719e+05
    1.5485695563e-02    1.0043371094e+05
    1.5509752557e-02    1.0044631250e+05
    1.5533835627e-02    1.0045850000e+05
    1.5557944775e-02    1.0047635156e+05
    1.5582079068e-02    1.0049541406e+05
    1.5606240369e-02    1.0052053906e+05
    1.5630424023e-02    1.0055939844e+05
    1.5654634684e-02    1.0060599219e+05
    1.5678871423e-02    1.0067065625e+05
    1.5703132376e-02    1.0074827344e+05
    1.5727419406e-02    1.0084024219e+05
    1.5751728788e-02    1.0094315625e+05
    1.5776060522e-02    1.0106203906e+05
    1.5800418332e-02    1.0117496094e+05
    1.5824800357e-02    1.0127953906e+05
    1.5849204734e-02    1.0136236719e+05
    1.5873633325e-02    1.0142564844e+05
    1.5898084268e-02    1.0147131250e+05
    1.5922557563e-02    1.0149971094e+05
    1.5947058797e-02    1.0151653906e+05
    1.5971582383e-02    1.0151100781e+05
    1.5996130183e-02    1.0150589844e+05
    1.6020702198e-02    1.0149309375e+05
    1.6045298427e-02    1.0149046875e+05
    1.6069920734e-02    1.0149367969e+05
    1.6094569117e-02    1.0150508594e+05
    1.6119243577e-02    1.0151903125e+05
    1.6143942252e-02    1.0153997656e+05
    1.6168667004e-02    1.0157331250e+05
    1.6193419695e-02    1.0160341406e+05
    1.6218200326e-02    1.0163091406e+05
    1.6243007034e-02    1.0165125000e+05
    1.6267839819e-02    1.0166930469e+05
    1.6292702407e-02    1.0168252344e+05
    1.6317596659e-02    1.0169538281e+05
    1.6342513263e-02    1.0169927344e+05
    1.6367461532e-02    1.0170121875e+05
    1.6392435879e-02    1.0169565625e+05
    1.6417443752e-02    1.0169164844e+05
    1.6442479566e-02    1.0168335156e+05
    1.6467543319e-02    1.0166491406e+05
    1.6492636874e-02    1.0164452344e+05
    1.6517756507e-02    1.0162658594e+05
    1.6542907804e-02    1.0160797656e+05
    1.6568088904e-02    1.0160060156e+05
    1.6593271866e-02    1.0159040625e+05
    1.6618426889e-02    1.0157925000e+05
    1.6643559560e-02    1.0156552344e+05
    1.6668669879e-02    1.0154850781e+05
    1.6693757847e-02    1.0153035156e+05
    1.6718825325e-02    1.0151116406e+05
    1.6743874177e-02    1.0148939844e+05
    1.6768900678e-02    1.0147083594e+05
    1.6793908551e-02    1.0144191406e+05
    1.6818899661e-02    1.0141171094e+05
    1.6843874007e-02    1.0137658594e+05
    1.6868829727e-02    1.0133830469e+05
    1.6893770546e-02    1.0130125000e+05
    1.6918692738e-02    1.0126077344e+05
    1.6943598166e-02    1.0122860156e+05
    1.6968490556e-02    1.0119122656e+05
    1.6993366182e-02    1.0115547656e+05
    1.7018226907e-02    1.0112374219e+05
    1.7043072730e-02    1.0108291406e+05
    1.7067901790e-02    1.0105096094e+05
    1.7092714086e-02    1.0101084375e+05
    1.7117511481e-02    1.0096710156e+05
    1.7142292112e-02    1.0092352344e+05
    1.7167057842e-02    1.0088546094e+05
    1.7191808671e-02    1.0084578125e+05
    1.7216544598e-02    1.0080881250e+05
    1.7241263762e-02    1.0076341406e+05
    1.7265968025e-02    1.0072358594e+05
    1.7290659249e-02    1.0068460156e+05
    1.7315333709e-02    1.0064460156e+05
    1.7339993268e-02    1.0060366406e+05
    1.7364639789e-02    1.0056121094e+05
    1.7389267683e-02    1.0052441406e+05
    1.7413880676e-02    1.0049347656e+05
    1.7438478768e-02    1.0045560156e+05
    1.7463061959e-02    1.0041966406e+05
    1.7487626523e-02    1.0037887500e+05
    1.7512176186e-02    1.0034405469e+05
    1.7536709085e-02    1.0030743750e+05
    1.7561223358e-02    1.0028139844e+05
    1.7585720867e-02    1.0026643750e+05
    1.7610201612e-02    1.0025708594e+05
    1.7634663731e-02    1.0024553906e+05
    1.7659107223e-02    1.0023997656e+05
    1.7683532089e-02    1.0024996094e+05
    1.7707940191e-02    1.0025902344e+05
    1.7732329667e-02    1.0028853906e+05
    1.7756698653e-02    1.0031805469e+05
    1.7781050876e-02    1.0035660156e+05
    1.7805384472e-02    1.0038862500e+05
    1.7829699442e-02    1.0041611719e+05
    1.7853999510e-02    1.0043935156e+05
    1.7878280953e-02    1.0045991406e+05
    1.7902545631e-02    1.0047728906e+05
    1.7926793545e-02    1.0048944531e+05
    1.7951028422e-02    1.0049560156e+05
    1.7975246534e-02    1.0048713281e+05
    1.7999447882e-02    1.0047002344e+05
    1.8023636192e-02    1.0044799219e+05
    1.8047811463e-02    1.0041735156e+05
    1.8071975559e-02    1.0038552344e+05
    1.8096126616e-02    1.0034003906e+05
    1.8120266497e-02    1.0029564844e+05
    1.8144397065e-02    1.0024596094e+05
    1.8168520182e-02    1.0019771875e+05
    1.8192630261e-02    1.0015241406e+05
    1.8216732889e-02    1.0010850781e+05
    1.8240824342e-02    1.0007139844e+05
    1.8264908344e-02    1.0003908594e+05
    1.8288983032e-02    1.0000978906e+05
    1.8313048407e-02    9.9990039062e+04
    1.8337102607e-02    9.9973351562e+04
    1.8361147493e-02    9.9970968750e+04
    1.8385183066e-02    9.9969562500e+04
    1.8409207463e-02    9.9974187500e+04
    1.8433224410e-02    9.9982414062e+04
    1.8457230181e-02    9.9988289062e+04
    1.8481226638e-02    9.9995210938e+04
    1.8505210057e-02    1.0000914844e+05
    1.8529184163e-02    1.0002483594e+05
    1.8553148955e-02    1.0004639844e+05
    1.8577100709e-02    1.0008646094e+05
    1.8601041287e-02    1.0011892969e+05
    1.8624972552e-02    1.0015127344e+05
    1.8648892641e-02    1.0018699219e+05
    1.8672801554e-02    1.0023314844e+05
    1.8696699291e-02    1.0028319531e+05
    1.8720587716e-02    1.0033739844e+05
    1.8744463101e-02    1.0039992969e+05
    1.8768329173e-02    1.0046271094e+05
    1.8792184070e-02    1.0052428906e+05
    1.8816027790e-02    1.0059066406e+05
    1.8839860335e-02    1.0066647656e+05
    1.8863683566e-02    1.0073478906e+05
    1.8887493759e-02    1.0081836719e+05
    1.8911294639e-02    1.0089902344e+05
    1.8935086206e-02    1.0097466406e+05
    1.8958866596e-02    1.0105216406e+05
    1.8982635811e-02    1.0112559375e+05
    1.9006397575e-02    1.0118842969e+05
    1.9030146301e-02    1.0124543750e+05
    1.9053885713e-02    1.0128990625e+05
    1.9077615812e-02    1.0132727344e+05
    1.9101334736e-02    1.0135585156e+05
    1.9125042483e-02    1.0137575000e+05
    1.9148740917e-02    1.0138628125e+05
    1.9172428176e-02    1.0137462500e+05
    1.9196104258e-02    1.0135839844e+05
    1.9219771028e-02    1.0133461719e+05
    1.9243424758e-02    1.0130336719e+05
    1.9267069176e-02    1.0127021094e+05
    1.9290700555e-02    1.0123491406e+05
    1.9314322621e-02    1.0119791406e+05
    1.9337931648e-02    1.0115857031e+05
    1.9361529499e-02    1.0111525000e+05
    1.9385114312e-02    1.0108160156e+05
    1.9408687949e-02    1.0105524219e+05
    1.9432250410e-02    1.0103859375e+05
    1.9455801696e-02    1.0102733594e+05
    1.9479339942e-02    1.0102072656e+05
    1.9502865151e-02    1.0102447656e+05
    1.9526379183e-02    1.0103434375e+05
    1.9549878314e-02    1.0105935156e+05
    1.9573366269e-02    1.0109742969e+05
    1.9596841186e-02    1.0115059375e+05
    1.9620303065e-02    1.0122060156e+05
    1.9643751904e-02    1.0129775000e+05
    1.9667187706e-02    1.0138878906e+05
    1.9690606743e-02    1.0149394531e+05
    1.9714014605e-02    1.0161616406e+05
    1.9737409428e-02    1.0174671094e+05
    1.9760791212e-02    1.0188816406e+05
    1.9784159958e-02    1.0203735156e+05
    1.9807513803e-02    1.0220236719e+05
    1.9830854610e-02    1.0236186719e+05
    1.9854182377e-02    1.0252338281e+05
    1.9877497107e-02    1.0267832031e+05
    1.9900798798e-02    1.0282171875e+05
    1.9924087450e-02    1.0295119531e+05
    1.9947361201e-02    1.0305403125e+05
    1.9970623776e-02    1.0313278125e+05
    1.9993871450e-02    1.0318196094e+05
    2.0017107949e-02    1.0320475781e+05
    2.0040329546e-02    1.0319385156e+05
    2.0063538104e-02    1.0315925781e+05
    2.0086731762e-02    1.0309003906e+05
    2.0109914243e-02    1.0298596094e+05
    2.0133081824e-02    1.0285447656e+05
    2.0156236365e-02    1.0269360156e+05
    2.0179376006e-02    1.0251478906e+05
    2.0202504471e-02    1.0232322656e+05
    2.0225618035e-02    1.0211508594e+05
    2.0248720422e-02    1.0191484375e+05
    2.0271807909e-02    1.0171790625e+05
    2.0294882357e-02    1.0153600000e+05
    2.0317947492e-02    1.0137775781e+05
    2.0340997726e-02    1.0124746094e+05
    2.0364036784e-02    1.0114185156e+05
    2.0387060940e-02    1.0106375000e+05
    2.0410073921e-02    1.0101789844e+05
    2.0433073863e-02    1.0099263281e+05
    2.0456060767e-02    1.0098666406e+05
    2.0479036495e-02    1.0099777344e+05
    2.0501999184e-02    1.0101583594e+05
    2.0524948835e-02    1.0104380469e+05
    2.0547885448e-02    1.0107533594e+05
    2.0570809022e-02    1.0109775781e+05
    2.0593719557e-02    1.0111821875e+05
    2.0616617054e-02    1.0113189844e+05
    2.0639499649e-02    1.0114935156e+05
    2.0662369207e-02    1.0115596875e+05
    2.0685223863e-02    1.0115414844e+05
    2.0708063617e-02    1.0114905469e+05
    2.0730890334e-02    1.0115103906e+05
    2.0753700286e-02    1.0115074219e+05
    2.0776495337e-02    1.0114984375e+05
    2.0799275488e-02    1.0114760156e+05
    2.0822042599e-02    1.0114528906e+05
    2.0844791085e-02    1.0115040625e+05
    2.0867524669e-02    1.0116327344e+05
    2.0890241489e-02    1.0117875000e+05
    2.0912945271e-02    1.0120402344e+05
    2.0935632288e-02    1.0123032031e+05
    2.0958306268e-02    1.0126232031e+05
    2.0980965346e-02    1.0129696094e+05
    2.1003607661e-02    1.0134816406e+05
    2.1026238799e-02    1.0140258594e+05
    2.1048855036e-02    1.0145406250e+05
    2.1071458235e-02    1.0151396094e+05
    2.1094048396e-02    1.0157316406e+05
    2.1116625518e-02    1.0163561719e+05
    2.1139191464e-02    1.0169910156e+05
    2.1161744371e-02    1.0176262500e+05
    2.1184286103e-02    1.0181653125e+05
    2.1206818521e-02    1.0186833594e+05
    2.1229337901e-02    1.0191246094e+05
    2.1251846105e-02    1.0195991406e+05
    2.1274344996e-02    1.0200403125e+05
    2.1296832711e-02    1.0203772656e+05
    2.1319312975e-02    1.0207821094e+05
    2.1341778338e-02    1.0210877344e+05
    2.1364232525e-02    1.0214527344e+05
    2.1386675537e-02    1.0217362500e+05
    2.1409107372e-02    1.0219605469e+05
    2.1431528032e-02    1.0221388281e+05
    2.1453931928e-02    1.0223377344e+05
    2.1476324648e-02    1.0224236719e+05
    2.1498700604e-02    1.0225528906e+05
    2.1521063522e-02    1.0226566406e+05
    2.1543409675e-02    1.0226608594e+05
    2.1565740928e-02    1.0226400781e+05
    2.1588053554e-02    1.0226438281e+05
    2.1610351279e-02    1.0226189844e+05
    2.1632634103e-02    1.0225772656e+05
    2.1654898301e-02    1.0224535156e+05
    2.1677147597e-02    1.0223871875e+05
    2.1699378267e-02    1.0223538281e+05
    2.1721594036e-02    1.0222960156e+05
    2.1743793041e-02    1.0222668750e+05
    2.1765975282e-02    1.0222364844e+05
    2.1788140759e-02    1.0222019531e+05
    2.1810289472e-02    1.0220458594e+05
    2.1832419559e-02    1.0219872656e+05
    2.1854531020e-02    1.0218284375e+05
    2.1876627579e-02    1.0217105469e+05
    2.1898705512e-02    1.0215210156e+05
    2.1920768544e-02    1.0213603906e+05
    2.1942811087e-02    1.0211747656e+05
    2.1964838728e-02    1.0209618750e+05
    2.1986849606e-02    1.0207019531e+05
    2.2008845583e-02    1.0204178906e+05
    2.2030822933e-02    1.0201261719e+05
    2.2052785382e-02    1.0198906250e+05
    2.2074732929e-02    1.0196215625e+05
    2.2096665576e-02    1.0193628906e+05
    2.2118583322e-02    1.0190959375e+05
    2.2140489891e-02    1.0188828906e+05
    2.2162377834e-02    1.0186860156e+05
    2.2184254602e-02    1.0184722656e+05
    2.2206118330e-02    1.0182768750e+05
    2.2227969021e-02    1.0180864844e+05
    2.2249806672e-02    1.0178886719e+05
    2.2271629423e-02    1.0177096094e+05
    2.2293440998e-02    1.0176166406e+05
    2.2315241396e-02    1.0175200000e+05
    2.2337028757e-02    1.0174064844e+05
    2.2358803079e-02    1.0172307031e+05
    2.2380566224e-02    1.0170472656e+05
    2.2402318195e-02    1.0168175000e+05
    2.2424057126e-02    1.0166271875e+05
    2.2445784882e-02    1.0164649219e+05
    2.2467501462e-02    1.0162863281e+05
    2.2489206865e-02    1.0160684375e+05
    2.2510899231e-02    1.0158710156e+05
    2.2532582283e-02    1.0156846094e+05
    2.2554252297e-02    1.0155127344e+05
    2.2575911134e-02    1.0153453906e+05
    2.2597560659e-02    1.0152646875e+05
    2.2619199008e-02    1.0151321875e+05
    2.2640828043e-02    1.0150571094e+05
    2.2662445903e-02    1.0149435156e+05
    2.2684050724e-02    1.0149558594e+05
    2.2705646232e-02    1.0150667969e+05
    2.2727232426e-02    1.0151138281e+05
    2.2748809308e-02    1.0151846875e+05
    2.2770375013e-02    1.0151941406e+05
    2.2791929543e-02    1.0152477344e+05
    2.2813472897e-02    1.0152810156e+05
    2.2835006937e-02    1.0153128125e+05
    2.2856531665e-02    1.0153700781e+05
    2.2878047079e-02    1.0154402344e+05
    2.2899549454e-02    1.0155172656e+05
    2.2921044379e-02    1.0155975000e+05
    2.2942528129e-02    1.0157086719e+05
    2.2964000702e-02    1.0158003906e+05
    2.2985465825e-02    1.0158663281e+05
    2.3006917909e-02    1.0159560156e+05
    2.3028360680e-02    1.0159885156e+05
    2.3049792275e-02    1.0159646094e+05
    2.3071214557e-02    1.0159584375e+05
    2.3092625663e-02    1.0159408594e+05
    2.3114029318e-02    1.0159335156e+05
    2.3135419935e-02    1.0160068750e+05
    2.3156799376e-02    1.0159121875e+05
    2.3178169504e-02    1.0158778906e+05
    2.3199530318e-02    1.0157510156e+05
    2.3220879957e-02    1.0156117969e+05
    2.3242218420e-02    1.0155321094e+05
    2.3263547570e-02    1.0153888281e+05
    2.3284865543e-02    1.0152881250e+05
    2.3306174204e-02    1.0152262500e+05
    2.3327469826e-02    1.0151350000e+05
    2.3348756135e-02    1.0149443750e+05
    2.3370031267e-02    1.0148137500e+05
    2.3391297087e-02    1.0147077344e+05
    2.3412553594e-02    1.0146785156e+05
    2.3433798924e-02    1.0145980469e+05
    2.3455033079e-02    1.0145416406e+05
    2.3476256058e-02    1.0144308594e+05
    2.3497469723e-02    1.0143746875e+05
    2.3518672213e-02    1.0143759375e+05
    2.3539865389e-02    1.0143383594e+05
    2.3561049253e-02    1.0143439844e+05
    2.3582221940e-02    1.0143321094e+05
    2.3603385314e-02    1.0143865625e+05
    2.3624535650e-02    1.0143660156e+05
    2.3645676672e-02    1.0143621875e+05
    2.3666808382e-02    1.0144217969e+05
    2.3687927052e-02    1.0144160156e+05
    2.3709038273e-02    1.0144508594e+05
    2.3730138317e-02    1.0145636719e+05
    2.3751227185e-02    1.0146430469e+05
    2.3772306740e-02    1.0147740625e+05
    2.3793375120e-02    1.0148094531e+05
    2.3814432323e-02    1.0149300781e+05
    2.3835480213e-02    1.0149628125e+05
    2.3856516927e-02    1.0150425000e+05
    2.3877544329e-02    1.0151155469e+05
    2.3898560554e-02    1.0152197656e+05
    2.3919565603e-02    1.0153261719e+05
    2.3940561339e-02    1.0154632031e+05
    2.3961545900e-02    1.0155228906e+05
    2.3982519284e-02    1.0156297656e+05
    2.4003483355e-02    1.0157061719e+05
    2.4024436250e-02    1.0157843750e+05
    2.4045377970e-02    1.0158509375e+05
    2.4066310376e-02    1.0159291406e+05
    2.4087233469e-02    1.0159938281e+05
    2.4108145386e-02    1.0159716406e+05
    2.4129044265e-02    1.0159775781e+05
    2.4149935693e-02    1.0159485156e+05
    2.4170814082e-02    1.0159021094e+05
    2.4191683158e-02    1.0158708594e+05
    2.4212542921e-02    1.0158038281e+05
    2.4233391508e-02    1.0157303906e+05
    2.4254228920e-02    1.0156502344e+05
    2.4275057018e-02    1.0155810156e+05
    2.4295873940e-02    1.0154693750e+05
    2.4316681549e-02    1.0153235156e+05
    2.4337477982e-02    1.0151900000e+05
    2.4358265102e-02    1.0150240625e+05
    2.4379042909e-02    1.0148984375e+05
    2.4399809539e-02    1.0147646094e+05
    2.4420566857e-02    1.0146989844e+05
    2.4441312999e-02    1.0146093750e+05
    2.4462047964e-02    1.0144452344e+05
    2.4482775480e-02    1.0143572656e+05
    2.4503491819e-02    1.0142799219e+05
    2.4524198845e-02    1.0142136719e+05
    2.4544894695e-02    1.0141138281e+05
    2.4565581232e-02    1.0140866406e+05
    2.4586258456e-02    1.0140450000e+05
    2.4606924504e-02    1.0140580469e+05
    2.4627581239e-02    1.0141271094e+05
    2.4648228660e-02    1.0141836719e+05
    2.4668866768e-02    1.0142508594e+05
    2.4689495564e-02    1.0143636719e+05
    2.4710113183e-02    1.0144683594e+05
    2.4730721489e-02    1.0146462500e+05
    2.4751318619e-02    1.0148903906e+05
    2.4771906435e-02    1.0150606250e+05
    2.4792486802e-02    1.0152932031e+05
    2.4813055992e-02    1.0155239844e+05
    2.4833614007e-02    1.0157221094e+05
    2.4854162708e-02    1.0158949219e+05
    2.4874702096e-02    1.0160708594e+05
    2.4895232171e-02    1.0162589844e+05
    2.4915752932e-02    1.0164996094e+05
    2.4936262518e-02    1.0167366406e+05
    2.4956764653e-02    1.0168641406e+05
    2.4977253750e-02    1.0170732031e+05
    2.4997735396e-02    1.0171155469e+05
    2.5018205866e-02    1.0171977344e+05
    2.5038668886e-02    1.0172333594e+05
    2.5059120730e-02    1.0172341406e+05
    2.5079563260e-02    1.0172228906e+05
    2.5099996477e-02    1.0172097656e+05
    2.5120420381e-02    1.0171177344e+05
    2.5140833110e-02    1.0170533594e+05
    2.5161236525e-02    1.0169046875e+05
    2.5181630626e-02    1.0167115625e+05
    2.5202017277e-02    1.0165439844e+05
    2.5222390890e-02    1.0163074219e+05
    2.5242757052e-02    1.0160816406e+05
    2.5263112038e-02    1.0157822656e+05
    2.5283459574e-02    1.0155446875e+05
    2.5303795934e-02    1.0153416406e+05
    2.5324124843e-02    1.0151027344e+05
    2.5344440714e-02    1.0148510156e+05
    2.5364749134e-02    1.0145966406e+05
    2.5385048240e-02    1.0143071094e+05
    2.5405339897e-02    1.0141243750e+05
    2.5425618514e-02    1.0138921094e+05
    2.5445887819e-02    1.0137328906e+05
    2.5466147810e-02    1.0136741406e+05
    2.5486400351e-02    1.0136260156e+05
    2.5506639853e-02    1.0135762500e+05
    2.5526873767e-02    1.0134869531e+05
    2.5547094643e-02    1.0134411719e+05
    2.5567308068e-02    1.0134290625e+05
    2.5587510318e-02    1.0134757031e+05
    2.5607703254e-02    1.0135553906e+05
    2.5627886876e-02    1.0135846094e+05
    2.5648061186e-02    1.0136746094e+05
    2.5668226182e-02    1.0137277344e+05
    2.5688380003e-02    1.0137796875e+05
    2.5708526373e-02    1.0138750781e+05
    2.5728661567e-02    1.0138753125e+05
    2.5748789310e-02    1.0139055469e+05
    2.5768904015e-02    1.0140066406e+05
    2.5789011270e-02    1.0140430469e+05
    2.5809109211e-02    1.0139864844e+05
    2.5829195976e-02    1.0140069531e+05
    2.5849273428e-02    1.0139330469e+05
    2.5869343430e-02    1.0138533594e+05
    2.5889402255e-02    1.0137921094e+05
    2.5909451768e-02    1.0137714844e+05
    2.5929493830e-02    1.0136734375e+05
    2.5949522853e-02    1.0134618750e+05
    2.5969544426e-02    1.0133534375e+05
    2.5989556685e-02    1.0131994531e+05
    2.6009559631e-02    1.0129412500e+05
    2.6029553264e-02    1.0127850781e+05
    2.6049537584e-02    1.0125974219e+05
    2.6069512591e-02    1.0124511719e+05
    2.6089478284e-02    1.0123464844e+05
    2.6109432802e-02    1.0122431250e+05
    2.6129379869e-02    1.0121325000e+05
    2.6149315760e-02    1.0121313281e+05
    2.6169244200e-02    1.0121782031e+05
    2.6189163327e-02    1.0122400000e+05
    2.6209073141e-02    1.0123752344e+05
    2.6228975505e-02    1.0125540625e+05
    2.6248866692e-02    1.0127455469e+05
    2.6268748567e-02    1.0129588281e+05
    2.6288621128e-02    1.0131678125e+05
    2.6308484375e-02    1.0134077344e+05
    2.6328338310e-02    1.0136440625e+05
    2.6348184794e-02    1.0139558594e+05
    2.6368021965e-02    1.0142552344e+05
    2.6387847960e-02    1.0144903125e+05
    2.6407664642e-02    1.0147488281e+05
    2.6427472010e-02    1.0149828906e+05
    2.6447271928e-02    1.0151783594e+05
    2.6467062533e-02    1.0153852344e+05
    2.6486843824e-02    1.0155735156e+05
    2.6506617665e-02    1.0158087500e+05
    2.6526380330e-02    1.0159758594e+05
    2.6546133682e-02    1.0160933594e+05
    2.6565877721e-02    1.0162115625e+05
    2.6585612446e-02    1.0163714844e+05
    2.6605339721e-02    1.0165289844e+05
    2.6625057682e-02    1.0166600781e+05
    2.6644766331e-02    1.0167903906e+05
    2.6664465666e-02    1.0169117969e+05
    2.6684155688e-02    1.0170767969e+05
    2.6703836396e-02    1.0172294531e+05
    2.6723509654e-02    1.0174255469e+05
    2.6743173599e-02    1.0175764844e+05
    2.6762828231e-02    1.0176800000e+05
    2.6782475412e-02    1.0178237500e+05
    2.6802113280e-02    1.0179271094e+05
    2.6821739972e-02    1.0180046094e+05
    2.6841359213e-02    1.0180603906e+05
    2.6860967278e-02    1.0181228125e+05
    2.6880569756e-02    1.0181524219e+05
    2.6900164783e-02    1.0181846094e+05
    2.6919748634e-02    1.0182350000e+05
    2.6939325035e-02    1.0182544531e+05
    2.6958892122e-02    1.0182716406e+05
    2.6978449896e-02    1.0182578125e+05
    2.6997998357e-02    1.0181653906e+05
    2.7017539367e-02    1.0181278906e+05
    2.7037071064e-02    1.0180692969e+05
    2.7056595311e-02    1.0180232031e+05
    2.7076110244e-02    1.0179696875e+05
    2.7095617726e-02    1.0178857031e+05
    2.7115115896e-02    1.0178525781e+05
    2.7134604752e-02    1.0177421875e+05
    2.7154086158e-02    1.0176596094e+05
    2.7173558250e-02    1.0176171094e+05
    2.7193021029e-02    1.0175402344e+05
    2.7212476358e-02    1.0175319531e+05
    2.7231922373e-02    1.0175387500e+05
    2.7251357213e-02    1.0175233594e+05
    2.7270786464e-02    1.0175078906e+05
    2.7290204540e-02    1.0174878125e+05
    2.7309613302e-02    1.0173928906e+05
    2.7329014614e-02    1.0173497656e+05
    2.7348404750e-02    1.0173052344e+05
    2.7367785573e-02    1.0172914844e+05
    2.7387158945e-02    1.0172210156e+05
    2.7406521142e-02    1.0171510156e+05
    2.7425874025e-02    1.0171308594e+05
    2.7445219457e-02    1.0171564844e+05
    2.7464553714e-02    1.0171150000e+05
    2.7483878657e-02    1.0170864844e+05
    2.7503194287e-02    1.0170450781e+05
    2.7522502467e-02    1.0170139844e+05
    2.7541799471e-02    1.0169794531e+05
    2.7561087161e-02    1.0168268750e+05
    2.7580365539e-02    1.0167856250e+05
    2.7599634603e-02    1.0168027344e+05
    2.7618894354e-02    1.0167996094e+05
    2.7638144791e-02    1.0167614844e+05
    2.7657385916e-02    1.0166988281e+05
    2.7676619589e-02    1.0165877344e+05
    2.7695843950e-02    1.0165224219e+05
    2.7715058997e-02    1.0165500000e+05
    2.7734262869e-02    1.0165118750e+05
    2.7753459290e-02    1.0165144531e+05
    2.7772648260e-02    1.0165396094e+05
    2.7791827917e-02    1.0165107031e+05
    2.7810998261e-02    1.0164958594e+05
    2.7830159292e-02    1.0164691406e+05
    2.7849311009e-02    1.0164433594e+05
    2.7868455276e-02    1.0164897656e+05
    2.7887590230e-02    1.0164696094e+05
    2.7906717733e-02    1.0164662500e+05
    2.7925835922e-02    1.0165483594e+05
    2.7944946662e-02    1.0165415625e+05
    2.7964048088e-02    1.0165136719e+05
    2.7983140200e-02    1.0165340625e+05
    2.8002224863e-02    1.0166122656e+05
    2.8021300212e-02    1.0166121094e+05
    2.8040368110e-02    1.0166107031e+05
    2.8059426695e-02    1.0166208594e+05
    2.8078475967e-02    1.0165978906e+05
    2.8097519651e-02    1.0166016406e+05
    2.8116554022e-02    1.0167008594e+05
    2.8135580942e-02    1.0167135156e+05
    2.8154598549e-02    1.0168228906e+05
    2.8173606843e-02    1.0168464844e+05
    2.8192607686e-02    1.0169050000e+05
    2.8211599216e-02    1.0169396094e+05
    2.8230583295e-02    1.0169389844e+05
    2.8249559924e-02    1.0169796875e+05
    2.8268527240e-02    1.0169757031e+05
    2.8287487105e-02    1.0169957031e+05
    2.8306435794e-02    1.0170189844e+05
    2.8325378895e-02    1.0171383594e+05
    2.8344312683e-02    1.0171933594e+05
    2.8363237157e-02    1.0172263281e+05
    2.8382156044e-02    1.0172583594e+05
    2.8401065618e-02    1.0172887500e+05
    2.8419965878e-02    1.0172703125e+05
    2.8438858688e-02    1.0173496875e+05
    2.8457742184e-02    1.0174184375e+05
    2.8476616368e-02    1.0174656250e+05
    2.8495483100e-02    1.0175024219e+05
    2.8514338657e-02    1.0175407031e+05
    2.8533160686e-02    1.0176247656e+05
    2.8551930562e-02    1.0176661719e+05
    2.8570635244e-02    1.0177566406e+05
    2.8589271009e-02    1.0177671094e+05
    2.8607837856e-02    1.0177510156e+05
    2.8626350686e-02    1.0177935156e+05
    2.8644818813e-02    1.0178355469e+05
    2.8663259000e-02    1.0178778125e+05
    2.8681686148e-02    1.0179189844e+05
    2.8700113297e-02    1.0179808594e+05
    2.8718546033e-02    1.0179937500e+05
    2.8736986220e-02    1.0179218750e+05
    2.8755431995e-02    1.0179383594e+05
    2.8773877770e-02    1.0179644531e+05
    2.8792314231e-02    1.0179775000e+05
    2.8810730204e-02    1.0179900781e+05
    2.8829116374e-02    1.0180105469e+05
    2.8847465292e-02    1.0179343750e+05
    2.8865773231e-02    1.0179227344e+05
    2.8884036466e-02    1.0179325781e+05
    2.8902258724e-02    1.0179306250e+05
    2.8920443729e-02    1.0179631250e+05
    2.8938598931e-02    1.0179497656e+05
    2.8956729919e-02    1.0179239844e+05
    2.8974846005e-02    1.0178787500e+05
    2.8992949054e-02    1.0178658594e+05
    2.9011042789e-02    1.0178728906e+05
    2.9029129073e-02    1.0178462500e+05
    2.9047204182e-02    1.0178437500e+05
    2.9065268114e-02    1.0178777344e+05
    2.9083315283e-02    1.0179143750e+05
    2.9101338238e-02    1.0178744531e+05
    2.9119335115e-02    1.0179003906e+05
    2.9137304053e-02    1.0178922656e+05
    2.9155241325e-02    1.0179072656e+05
    2.9173148796e-02    1.0179222656e+05
    2.9191024601e-02    1.0179378906e+05
    2.9208874330e-02    1.0179430469e+05
    2.9226697981e-02    1.0179510156e+05
    2.9244501144e-02    1.0180287500e+05
    2.9262285680e-02    1.0180896094e+05
    2.9280053452e-02    1.0180383594e+05
    2.9297806323e-02    1.0181246094e+05
    2.9315544292e-02    1.0181653906e+05
    2.9333265498e-02    1.0181836719e+05
    2.9350971803e-02    1.0181672656e+05
    2.9368655756e-02    1.0181482031e+05
    2.9386319220e-02    1.0181719531e+05
    2.9403960332e-02    1.0182447656e+05
    2.9421577230e-02    1.0181671875e+05
    2.9439168051e-02    1.0181557031e+05
    2.9456734657e-02    1.0182152344e+05
    2.9474277049e-02    1.0182292969e+05
    2.9491795227e-02    1.0182655469e+05
    2.9509292915e-02    1.0182096094e+05
    2.9526771978e-02    1.0182228906e+05
    2.9544232413e-02    1.0182814844e+05
    2.9561674222e-02    1.0182519531e+05
    2.9579099268e-02    1.0183353906e+05
    2.9596509412e-02    1.0182780469e+05
    2.9613900930e-02    1.0183381250e+05
    2.9631273821e-02    1.0183021094e+05
    2.9648626223e-02    1.0183124219e+05
    2.9665958136e-02    1.0183112500e+05
    2.9683271423e-02    1.0183328906e+05
    2.9700560495e-02    1.0183547656e+05
    2.9717829078e-02    1.0183539844e+05
    2.9735075310e-02    1.0183768750e+05
    2.9752301052e-02    1.0183886719e+05
    2.9769508168e-02    1.0183896094e+05
    2.9786696658e-02    1.0184465625e+05
    2.9803866521e-02    1.0184611719e+05
    2.9821017757e-02    1.0184761719e+05
    2.9838152230e-02    1.0185158594e+05
    2.9855269939e-02    1.0185328906e+05
    2.9872370884e-02    1.0185699219e+05
    2.9889453202e-02    1.0185861719e+05
    2.9906518757e-02    1.0186253906e+05
    2.9923565686e-02    1.0186321094e+05
    2.9940593988e-02    1.0186416406e+05
    2.9957601801e-02    1.0187218750e+05
    2.9974590987e-02    1.0188091406e+05
    2.9991561547e-02    1.0188403906e+05
    3.0008511618e-02    1.0189053906e+05
    3.0025444925e-02    1.0189267969e+05
    3.0042361468e-02    1.0189144531e+05
    3.0059259385e-02    1.0189697656e+05
    3.0076142401e-02    1.0190474219e+05
    3.0093006790e-02    1.0190710156e+05
    3.0109854415e-02    1.0191667969e+05
    3.0126683414e-02    1.0192047656e+05
    3.0143497512e-02    1.0191981250e+05
    3.0160292983e-02    1.0192346094e+05
    3.0177071691e-02    1.0192221875e+05
    3.0193833634e-02    1.0192330469e+05
    3.0210576952e-02    1.0192764844e+05
    3.0227303505e-02    1.0193189844e+05
    3.0244011432e-02    1.0193366406e+05
    3.0260702595e-02    1.0193753906e+05
    3.0277376994e-02    1.0193547656e+05
    3.0294034630e-02    1.0193516406e+05
    3.0310675502e-02    1.0193435156e+05
    3.0327299610e-02    1.0192891406e+05
    3.0343905091e-02    1.0192497656e+05
    3.0360495672e-02    1.0192535156e+05
    3.0377071351e-02    1.0192096094e+05
    3.0393628404e-02    1.0191241406e+05
    3.0410168692e-02    1.0191171875e+05
    3.0426690355e-02    1.0191203906e+05
    3.0443195254e-02    1.0190559375e+05
    3.0459685251e-02    1.0190558594e+05
    3.0476156622e-02    1.0189946094e+05
    3.0492611229e-02    1.0189649219e+05
    3.0509050936e-02    1.0188647656e+05
    3.0525473878e-02    1.0188150781e+05
    3.0541881919e-02    1.0187889844e+05
    3.0558273196e-02    1.0187499219e+05
    3.0574647710e-02    1.0187341406e+05
    3.0591005459e-02    1.0187187500e+05
    3.0607348308e-02    1.0186822656e+05
    3.0623674393e-02    1.0186580469e+05
    3.0639985576e-02    1.0187275000e+05
    3.0656279996e-02    1.0186822656e+05
    3.0672557652e-02    1.0186141406e+05
    3.0688818544e-02    1.0185678906e+05
    3.0705062672e-02    1.0185446094e+05
    3.0721291900e-02    1.0185897656e+05
    3.0737506226e-02    1.0185950781e+05
    3.0753703788e-02    1.0185774219e+05
    3.0769886449e-02    1.0185725781e+05
    3.0786054209e-02    1.0185683594e+05
    3.0802207068e-02    1.0185764844e+05
    3.0818343163e-02    1.0185847656e+05
    3.0834466219e-02    1.0185603125e+05
    3.0850572512e-02    1.0185031250e+05
    3.0866663903e-02    1.0184914844e+05
    3.0882738531e-02    1.0185041406e+05
    3.0898798257e-02    1.0186003906e+05
    3.0914843082e-02    1.0185735156e+05
    3.0930871144e-02    1.0185937500e+05
    3.0946886167e-02    1.0185902344e+05
    3.0962884426e-02    1.0185628125e+05
    3.0978867784e-02    1.0185327344e+05
    3.0994836241e-02    1.0185521875e+05
    3.1010789797e-02    1.0185725781e+05
    3.1026728451e-02    1.0186185156e+05
    3.1042650342e-02    1.0186491406e+05
    3.1058559194e-02    1.0186810156e+05
    3.1074455008e-02    1.0186928906e+05
    3.1090334058e-02    1.0187518750e+05
    3.1106200069e-02    1.0188271094e+05
    3.1122051179e-02    1.0188446094e+05
    3.1137887388e-02    1.0188516406e+05
    3.1153710559e-02    1.0188950781e+05
    3.1169516966e-02    1.0189293750e+05
    3.1185310334e-02    1.0189669531e+05
    3.1201090664e-02    1.0190428125e+05
    3.1216854230e-02    1.0191258594e+05
    3.1232602894e-02    1.0192085156e+05
    3.1248336658e-02    1.0192496094e+05
    3.1264055520e-02    1.0193397656e+05
    3.1279761344e-02    1.0193938281e+05
    3.1295452267e-02    1.0194246094e+05
    3.1311132014e-02    1.0193958594e+05
    3.1326796860e-02    1.0194935156e+05
    3.1342446804e-02    1.0195494531e+05
    3.1358085573e-02    1.0195963281e+05
    3.1373709440e-02    1.0196452344e+05
    3.1389318407e-02    1.0197402344e+05
    3.1404916197e-02    1.0198146094e+05
    3.1420499086e-02    1.0199147656e+05
    3.1436067075e-02    1.0199677344e+05
    3.1451620162e-02    1.0199750000e+05
    3.1467158347e-02    1.0200000781e+05
    3.1482685357e-02    1.0200236719e+05
    3.1498193741e-02    1.0200462500e+05
    3.1513694674e-02    1.0200909375e+05
    3.1529176980e-02    1.0201349219e+05
    3.1544648111e-02    1.0201771875e+05
    3.1560108066e-02    1.0201736719e+05
    3.1575553119e-02    1.0201535156e+05
    3.1590986997e-02    1.0202032031e+05
    3.1606405973e-02    1.0202744531e+05
    3.1621813774e-02    1.0203487500e+05
    3.1637206674e-02    1.0203169531e+05
    3.1652588397e-02    1.0203157031e+05
    3.1667951494e-02    1.0203336719e+05
    3.1683307141e-02    1.0203021094e+05
    3.1698647887e-02    1.0202833594e+05
    3.1713977456e-02    1.0202032031e+05
    3.1729292125e-02    1.0202086719e+05
    3.1744595617e-02    1.0200950000e+05
    3.1759884208e-02    1.0200921094e+05
    3.1775161624e-02    1.0200864844e+05
    3.1790427864e-02    1.0200428125e+05
    3.1805675477e-02    1.0200083594e+05
    3.1820915639e-02    1.0199503906e+05
    3.1836140901e-02    1.0199453906e+05
    3.1851354986e-02    1.0199039844e+05
    3.1866557896e-02    1.0198628125e+05
    3.1881745905e-02    1.0198180469e+05
    3.1896922737e-02    1.0197835156e+05
    3.1912088394e-02    1.0197939844e+05
    3.1927239150e-02    1.0197827344e+05
    3.1942378730e-02    1.0197511719e+05
    3.1957507133e-02    1.0197571094e+05
    3.1972620636e-02    1.0197885156e+05
    3.1987726688e-02    1.0198272656e+05
    3.2002814114e-02    1.0198456250e+05
    3.2017890364e-02    1.0199386719e+05
    3.2032959163e-02    1.0199450000e+05
    3.2048013061e-02    1.0199812500e+05
    3.2063052058e-02    1.0200653125e+05
    3.2078083605e-02    1.0201343750e+05
    3.2093103975e-02    1.0202263281e+05
    3.2108109444e-02    1.0202533594e+05
    3.2123107463e-02    1.0202815625e+05
    3.2138090581e-02    1.0203228906e+05
    3.2153062522e-02    1.0204114844e+05
    3.2168023288e-02    1.0204946875e+05
    3.2182972878e-02    1.0205108594e+05
    3.2197911292e-02    1.0205771875e+05
    3.2212834805e-02    1.0206902344e+05
    3.2227750868e-02    1.0207374219e+05
    3.2242652029e-02    1.0208083594e+05
    3.2257542014e-02    1.0208553906e+05
    3.2272424549e-02    1.0208792969e+05
    3.2287292182e-02    1.0208778906e+05
    3.2302148640e-02    1.0208999219e+05
    3.2316997647e-02    1.0209785156e+05
    3.2331831753e-02    1.0210590625e+05
    3.2346658409e-02    1.0211294531e+05
    3.2361470163e-02    1.0211639844e+05
    3.2376270741e-02    1.0211517969e+05
    3.2391063869e-02    1.0211939844e+05
    3.2405842096e-02    1.0212331250e+05
    3.2420612872e-02    1.0211978906e+05
    3.2435368747e-02    1.0212071875e+05
    3.2450113446e-02    1.0211877344e+05
    3.2464850694e-02    1.0211428125e+05
    3.2479573041e-02    1.0211631250e+05
    3.2494287938e-02    1.0211927344e+05
    3.2508991659e-02    1.0211739844e+05
    3.2523684204e-02    1.0211874219e+05
    3.2538365573e-02    1.0211327344e+05
    3.2553035766e-02    1.0211671094e+05
    3.2567698509e-02    1.0211772656e+05
    3.2582346350e-02    1.0211639844e+05
    3.2596986741e-02    1.0211827344e+05
    3.2611619681e-02    1.0211646875e+05
    3.2626237720e-02    1.0210880469e+05
    3.2640848309e-02    1.0210992969e+05
    3.2655447721e-02    1.0210965625e+05
    3.2670035958e-02    1.0210803906e+05
    3.2684613019e-02    1.0210035156e+05
    3.2699178904e-02    1.0209717969e+05
    3.2713737339e-02    1.0209614844e+05
    3.2728284597e-02    1.0209503906e+05
    3.2742820680e-02    1.0209271094e+05
    3.2757349312e-02    1.0209042969e+05
    3.2771866769e-02    1.0208922656e+05
    3.2786373049e-02    1.0208903906e+05
    3.2800871879e-02    1.0208628906e+05
    3.2815355808e-02    1.0207967969e+05
    3.2829832286e-02    1.0207308594e+05
    3.2844301313e-02    1.0207066406e+05
    3.2858755440e-02    1.0206813281e+05
    3.2873202115e-02    1.0206559375e+05
    3.2887637615e-02    1.0206312500e+05
    3.2902065665e-02    1.0206067969e+05
    3.2916482538e-02    1.0205840625e+05
    3.2930891961e-02    1.0205614844e+05
    3.2945290208e-02    1.0205502344e+05
    3.2959677279e-02    1.0205377344e+05
    3.2974056900e-02    1.0205130469e+05
    3.2988425344e-02    1.0204871094e+05
    3.3002786338e-02    1.0204246875e+05
    3.3017136157e-02    1.0204096875e+05
    3.3031478524e-02    1.0203832031e+05
    3.3045809716e-02    1.0203577344e+05
    3.3060129732e-02    1.0203452344e+05
    3.3074442297e-02    1.0203119531e+05
    3.3088747412e-02    1.0202933594e+05
    3.3103041351e-02    1.0203241406e+05
    3.3117324114e-02    1.0203759375e+05
    3.3131599426e-02    1.0203608594e+05
    3.3145863563e-02    1.0202967969e+05
    3.3160120249e-02    1.0202228906e+05
    3.3174365759e-02    1.0201933594e+05
    3.3188603818e-02    1.0202677344e+05
    3.3202830702e-02    1.0202525000e+05
    3.3217050135e-02    1.0202387500e+05
    3.3231258392e-02    1.0202377344e+05
    3.3245459199e-02    1.0202371875e+05
    3.3259648830e-02    1.0202263281e+05
    3.3273831010e-02    1.0202160156e+05
    3.3288005739e-02    1.0202071094e+05
    3.3302169293e-02    1.0202103125e+05
    3.3316325396e-02    1.0202155469e+05
    3.3330474049e-02    1.0202582031e+05
    3.3344611526e-02    1.0202539844e+05
    3.3358741552e-02    1.0202266406e+05
    3.3372864127e-02    1.0201611719e+05
    3.3386975527e-02    1.0201519531e+05
    3.3401079476e-02    1.0201415625e+05
    3.3415172249e-02    1.0201441406e+05
    3.3429257572e-02    1.0201606250e+05
    3.3443335444e-02    1.0202021094e+05
    3.3457405865e-02    1.0202212500e+05
    3.3471468836e-02    1.0201955469e+05
    3.3485524356e-02    1.0201937500e+05
    3.3499568701e-02    1.0202035156e+05
    3.3513605595e-02    1.0202135156e+05
    3.3527631313e-02    1.0202116406e+05
    3.3541653305e-02    1.0201878906e+05
    3.3555664122e-02    1.0202111719e+05
    3.3569667488e-02    1.0202125781e+05
    3.3583663404e-02    1.0202050781e+05
    3.3597648144e-02    1.0202697656e+05
    3.3611625433e-02    1.0203003906e+05
    3.3625595272e-02    1.0203336719e+05
    3.3639557660e-02    1.0203450781e+05
    3.3653512597e-02    1.0203557031e+05
    3.3667460084e-02    1.0203647656e+05
    3.3681396395e-02    1.0203252344e+05
    3.3695328981e-02    1.0202864844e+05
    3.3709254116e-02    1.0203158594e+05
    3.3723168075e-02    1.0203689844e+05
    3.3737078309e-02    1.0203867969e+05
    3.3750977367e-02    1.0203822656e+05
    3.3764872700e-02    1.0203421094e+05
    3.3778760582e-02    1.0203335156e+05
    3.3792637289e-02    1.0203255469e+05
    3.3806510270e-02    1.0203521094e+05
    3.3820372075e-02    1.0203790625e+05
    3.3834230155e-02    1.0203399219e+05
    3.3848077059e-02    1.0203449219e+05
    3.3861916512e-02    1.0203735156e+05
    3.3875752240e-02    1.0204264844e+05
    3.3889576793e-02    1.0204346094e+05
    3.3903393894e-02    1.0204066406e+05
    3.3917203546e-02    1.0203747656e+05
    3.3931009471e-02    1.0203544531e+05
    3.3944804221e-02    1.0203783594e+05
    3.3958595246e-02    1.0203571094e+05
    3.3972378820e-02    1.0203805469e+05
    3.3986151218e-02    1.0203583594e+05
    3.3999919891e-02    1.0203808594e+05
    3.4013681114e-02    1.0203690625e+05
    3.4027434886e-02    1.0203783594e+05
    3.4041177481e-02    1.0203621094e+05
    3.4054916352e-02    1.0203683594e+05
    3.4068647772e-02    1.0203164844e+05
    3.4082375467e-02    1.0202527344e+05
    3.4096091986e-02    1.0203157031e+05
    3.4109804779e-02    1.0203446094e+05
    3.4123510122e-02    1.0203184375e+05
    3.4137208015e-02    1.0203387500e+05
    3.4150898457e-02    1.0203141406e+05
    3.4164581448e-02    1.0203350000e+05
    3.4178260714e-02    1.0202978906e+05
    3.4191932529e-02    1.0202712500e+05
    3.4205596894e-02    1.0202338281e+05
    3.4219253808e-02    1.0202066406e+05
    3.4232903272e-02    1.0202492969e+05
    3.4246545285e-02    1.0202696094e+05
    3.4260183573e-02    1.0203105469e+05
    3.4273810685e-02    1.0202387500e+05
    3.4287434071e-02    1.0202109375e+05
    3.4301050007e-02    1.0202747656e+05
    3.4314658493e-02    1.0202702344e+05
    3.4328263253e-02    1.0201975781e+05
    3.4341860563e-02    1.0201921875e+05
    3.4355450422e-02    1.0201866406e+05
    3.4369036555e-02    1.0201583594e+05
    3.4382611513e-02    1.0201740625e+05
    3.4396182746e-02    1.0201666406e+05
    3.4409742802e-02    1.0201467969e+05
    3.4423299134e-02    1.0201496094e+05
    3.4436848015e-02    1.0201515625e+05
    3.4450393170e-02    1.0201294531e+05
    3.4463927150e-02    1.0201058594e+05
    3.4477461129e-02    1.0200715625e+05
    3.4490987659e-02    1.0200257031e+05
    3.4504506737e-02    1.0200491406e+05
    3.4518022090e-02    1.0200831250e+05
    3.4531529993e-02    1.0200628125e+05
    3.4545030445e-02    1.0200659375e+05
    3.4558523446e-02    1.0200460156e+05
    3.4572008997e-02    1.0200368750e+05
    3.4585487098e-02    1.0200271094e+05
    3.4598957747e-02    1.0200156250e+05
    3.4612424672e-02    1.0200028906e+05
    3.4625884145e-02    1.0199197656e+05
    3.4639336169e-02    1.0199286719e+05
    3.4652780741e-02    1.0198708594e+05
    3.4666225314e-02    1.0198805469e+05
    3.4679658711e-02    1.0198675781e+05
    3.4693088382e-02    1.0199016406e+05
    3.4706510603e-02    1.0199128906e+05
    3.4719929099e-02    1.0198547656e+05
    3.4733340144e-02    1.0198436719e+05
    3.4746743739e-02    1.0197997656e+05
    3.4760143608e-02    1.0198231250e+05
    3.4773536026e-02    1.0198247656e+05
    3.4786924720e-02    1.0197774219e+05
    3.4800305963e-02    1.0197510156e+05
    3.4813679755e-02    1.0197591406e+05
    3.4827046096e-02    1.0197439844e+05
    3.4840408713e-02    1.0196718750e+05
    3.4853763878e-02    1.0196555469e+05
    3.4867111593e-02    1.0196622656e+05
    3.4880455583e-02    1.0196358594e+05
    3.4893795848e-02    1.0196313281e+05
    3.4907124937e-02    1.0196152344e+05
    3.4920454025e-02    1.0195861719e+05
    3.4933775663e-02    1.0195791406e+05
    3.4947093576e-02    1.0195380469e+05
    3.4960404038e-02    1.0195197656e+05
    3.4973710775e-02    1.0195006250e+05
    3.4987010062e-02    1.0194921094e+05
endcurve
