Curveplot
LS-DYNA keyword deck by LS-PrePost                          
Time
Pressure
Defined Connection
Pressure @ 106 #pts=1745
* Minval=     9.9890773438e+04 at time=         0.0153180165
* Maxval=     1.6325950000e+05 at time=         0.0088118780
    0.0000000000e+00    9.9998710938e+04
    3.3812357287e-05    9.9998710938e+04
    6.1326652940e-05    9.9996585938e+04
    8.9102875791e-05    9.9998960938e+04
    1.1682785407e-04    9.9999179688e+04
    1.4461828687e-04    9.9999554688e+04
    1.7236733402e-04    1.0000241406e+05
    2.0016246708e-04    1.0000085156e+05
    2.2795486439e-04    1.0000140625e+05
    2.5574557367e-04    1.0000182031e+05
    2.8353667585e-04    9.9999882812e+04
    3.1133697485e-04    1.0000235156e+05
    3.3912662184e-04    1.0000210156e+05
    3.6691734567e-04    9.9992476562e+04
    3.9470891352e-04    9.9998898438e+04
    4.2249175021e-04    9.9998960938e+04
    4.5027161832e-04    1.0000387500e+05
    4.7804549104e-04    1.0000433594e+05
    5.0581363030e-04    1.0000239844e+05
    5.3357944125e-04    1.0000216406e+05
    5.6134146871e-04    9.9995085938e+04
    5.8909942163e-04    1.0000168750e+05
    6.1685312539e-04    1.0000011719e+05
    6.4460188150e-04    9.9998507812e+04
    6.7234638846e-04    1.0000047656e+05
    7.0008635521e-04    1.0000049219e+05
    7.2782178177e-04    1.0000066406e+05
    7.5555208605e-04    9.9998648438e+04
    7.8327720985e-04    9.9999898438e+04
    8.1099680392e-04    9.9993976562e+04
    8.3871174138e-04    1.0000309375e+05
    8.6642213864e-04    1.0000114844e+05
    8.9412782108e-04    1.0000191406e+05
    9.2182843946e-04    1.0000231250e+05
    9.4952445943e-04    1.0000221094e+05
    9.7721535712e-04    1.0000216406e+05
    1.0049008997e-03    1.0000196094e+05
    1.0325826006e-03    9.9999523438e+04
    1.0602590628e-03    1.0000172656e+05
    1.0879321489e-03    1.0000182031e+05
    1.1155996472e-03    9.9994718750e+04
    1.1432634201e-03    9.9994195312e+04
    1.1709230021e-03    9.9996164062e+04
    1.1985785095e-03    1.0000087500e+05
    1.2262313394e-03    1.0000128125e+05
    1.2538790470e-03    1.0000638281e+05
    1.2815232622e-03    1.0000275781e+05
    1.3091630535e-03    1.0000385156e+05
    1.3368004002e-03    1.0000585156e+05
    1.3644339051e-03    1.0001036719e+05
    1.3920635683e-03    1.0002489844e+05
    1.4196902048e-03    1.0005099219e+05
    1.4473132323e-03    1.0009957031e+05
    1.4749332331e-03    1.0019184375e+05
    1.5025498578e-03    1.0032902344e+05
    1.5301633393e-03    1.0052266406e+05
    1.5577742597e-03    1.0077406250e+05
    1.5853822697e-03    1.0108977344e+05
    1.6129877185e-03    1.0146746094e+05
    1.6405890929e-03    1.0186621875e+05
    1.6681876732e-03    1.0225012500e+05
    1.6957829939e-03    1.0259844531e+05
    1.7233766848e-03    1.0287489844e+05
    1.7509678146e-03    1.0305105469e+05
    1.7785291420e-03    1.0313858594e+05
    1.8060547300e-03    1.0313164844e+05
    1.8335470231e-03    1.0305446094e+05
    1.8610082334e-03    1.0292305469e+05
    1.8884401070e-03    1.0275252344e+05
    1.9158447394e-03    1.0257097656e+05
    1.9432241097e-03    1.0241634375e+05
    1.9705800805e-03    1.0229747656e+05
    1.9979148638e-03    1.0222243750e+05
    2.0252298564e-03    1.0219415625e+05
    2.0525271539e-03    1.0221484375e+05
    2.0798076876e-03    1.0226957031e+05
    2.1070730872e-03    1.0234697656e+05
    2.1343247499e-03    1.0242246094e+05
    2.1615643054e-03    1.0248761719e+05
    2.1887931507e-03    1.0252524219e+05
    2.2160108201e-03    1.0253839844e+05
    2.2432196420e-03    1.0253303906e+05
    2.2704207804e-03    1.0251396094e+05
    2.2976147011e-03    1.0248278906e+05
    2.3248014040e-03    1.0244261719e+05
    2.3519827519e-03    1.0241163281e+05
    2.3791582789e-03    1.0239574219e+05
    2.4063293822e-03    1.0238183594e+05
    2.4334960617e-03    1.0238860156e+05
    2.4606597144e-03    1.0239450000e+05
    2.4878205732e-03    1.0241081250e+05
    2.5149781723e-03    1.0243275781e+05
    2.5421329774e-03    1.0244192969e+05
    2.5692859199e-03    1.0244713281e+05
    2.5964374654e-03    1.0244668750e+05
    2.6235871483e-03    1.0244105469e+05
    2.6507352013e-03    1.0243380469e+05
    2.6778825559e-03    1.0242711719e+05
    2.7050296776e-03    1.0242291406e+05
    2.7321761008e-03    1.0242174219e+05
    2.7593218256e-03    1.0242163281e+05
    2.7864677832e-03    1.0242266406e+05
    2.8136142064e-03    1.0242435156e+05
    2.8407603968e-03    1.0242910156e+05
    2.8679079842e-03    1.0243693750e+05
    2.8950548731e-03    1.0246472656e+05
    2.9222022276e-03    1.0248493750e+05
    2.9493502807e-03    1.0252100000e+05
    2.9764990322e-03    1.0257227344e+05
    3.0036487151e-03    1.0263828906e+05
    3.0307997949e-03    1.0272241406e+05
    3.0579508748e-03    1.0280914844e+05
    3.0851035845e-03    1.0291746094e+05
    3.1122572254e-03    1.0302559375e+05
    3.1394117977e-03    1.0312308594e+05
    3.1665677670e-03    1.0320800781e+05
    3.1937246677e-03    1.0327003125e+05
    3.2208829653e-03    1.0329827344e+05
    3.2480424270e-03    1.0330338281e+05
    3.2752046827e-03    1.0328912500e+05
    3.2952371985e-03    1.0325412500e+05
    3.3145032357e-03    1.0322683594e+05
    3.3336398192e-03    1.0319085156e+05
    3.3528339118e-03    1.0314733594e+05
    3.3720366191e-03    1.0309996875e+05
    3.3912549261e-03    1.0305983594e+05
    3.4104890656e-03    1.0301261719e+05
    3.4297339153e-03    1.0297271875e+05
    3.4486323129e-03    1.0293118750e+05
    3.4671388566e-03    1.0288134375e+05
    3.4854323603e-03    1.0283222656e+05
    3.5036695190e-03    1.0277197656e+05
    3.5219141282e-03    1.0269806250e+05
    3.5401545465e-03    1.0262903125e+05
    3.5583588760e-03    1.0256540625e+05
    3.5765271168e-03    1.0249650000e+05
    3.5946895368e-03    1.0243000000e+05
    3.6139658187e-03    1.0237847656e+05
    3.6330535077e-03    1.0232621875e+05
    3.6521453876e-03    1.0228852344e+05
    3.6699753255e-03    1.0225252344e+05
    3.6875614896e-03    1.0223278906e+05
    3.7050142419e-03    1.0220994531e+05
    3.7224807311e-03    1.0219315625e+05
    3.7400643341e-03    1.0217991406e+05
    3.7577797193e-03    1.0216975000e+05
    3.7755726371e-03    1.0214982031e+05
    3.7933769636e-03    1.0214275000e+05
    3.8111612666e-03    1.0213152344e+05
    3.8289318327e-03    1.0212662500e+05
    3.8467168342e-03    1.0211993750e+05
    3.8645383902e-03    1.0211958594e+05
    3.8824023213e-03    1.0211600000e+05
    3.9002960548e-03    1.0210880469e+05
    3.9182156324e-03    1.0209728906e+05
    3.9361710660e-03    1.0207613281e+05
    3.9541716687e-03    1.0205896094e+05
    3.9733103476e-03    1.0203191406e+05
    3.9924201556e-03    1.0201355469e+05
    4.0104058571e-03    1.0199558594e+05
    4.0284004062e-03    1.0198561719e+05
    4.0464363992e-03    1.0198035156e+05
    4.0656095371e-03    1.0197422656e+05
    4.0847789496e-03    1.0197014844e+05
    4.1039343923e-03    1.0196097656e+05
    4.1219722480e-03    1.0194771094e+05
    4.1400394402e-03    1.0194306250e+05
    4.1591953486e-03    1.0193553125e+05
    4.1784178466e-03    1.0193541406e+05
    4.1976389475e-03    1.0192977344e+05
    4.2168586515e-03    1.0192177344e+05
    4.2360713705e-03    1.0191122656e+05
    4.2552771047e-03    1.0190038281e+05
    4.2744791135e-03    1.0188918750e+05
    4.2936825193e-03    1.0187742969e+05
    4.3128933758e-03    1.0186291406e+05
    4.3321144767e-03    1.0185693750e+05
    4.3513495475e-03    1.0184080469e+05
    4.3705995195e-03    1.0182311719e+05
    4.3898657896e-03    1.0180311719e+05
    4.4091497548e-03    1.0177802344e+05
    4.4284537435e-03    1.0174714844e+05
    4.4477786869e-03    1.0171221094e+05
    4.4671236537e-03    1.0167252344e+05
    4.4864914380e-03    1.0162025781e+05
    4.5058806427e-03    1.0156609375e+05
    4.5252908021e-03    1.0149536719e+05
    4.5447219163e-03    1.0140764844e+05
    4.5641721226e-03    1.0131659375e+05
    4.5836409554e-03    1.0121561719e+05
    4.6031279489e-03    1.0110091406e+05
    4.6226321720e-03    1.0098925781e+05
    4.6421540901e-03    1.0086721875e+05
    4.6616927721e-03    1.0073774219e+05
    4.6812482178e-03    1.0061087500e+05
    4.7008208930e-03    1.0049392969e+05
    4.7204112634e-03    1.0039306250e+05
    4.7400193289e-03    1.0030749219e+05
    4.7596455552e-03    1.0023377344e+05
    4.7792894766e-03    1.0018700781e+05
    4.7989510931e-03    1.0015728906e+05
    4.8186304048e-03    1.0014268750e+05
    4.8383255489e-03    1.0015222656e+05
    4.8580355942e-03    1.0018314844e+05
    4.8777610064e-03    1.0023212500e+05
    4.8975008540e-03    1.0028869531e+05
    4.9172551371e-03    1.0035290625e+05
    4.9370229244e-03    1.0041577344e+05
    4.9568060786e-03    1.0047464844e+05
    4.9766036682e-03    1.0052982031e+05
    4.9964170903e-03    1.0057037500e+05
    5.0162458792e-03    1.0061303906e+05
    5.0360900350e-03    1.0064322656e+05
    5.0559476949e-03    1.0066697656e+05
    5.0758207217e-03    1.0067928906e+05
    5.0957072526e-03    1.0068453906e+05
    5.1156077534e-03    1.0067615625e+05
    5.1355226897e-03    1.0066142969e+05
    5.1554525271e-03    1.0064153125e+05
    5.1753963344e-03    1.0062680469e+05
    5.1953555085e-03    1.0060925781e+05
    5.2153295837e-03    1.0059668750e+05
    5.2353194915e-03    1.0058983594e+05
    5.2553247660e-03    1.0057578906e+05
    5.2753463387e-03    1.0057264844e+05
    5.2953832783e-03    1.0057621875e+05
    5.3154369816e-03    1.0058078906e+05
    5.3355065174e-03    1.0058730469e+05
    5.3555918857e-03    1.0059634375e+05
    5.3756926209e-03    1.0059982031e+05
    5.3958082572e-03    1.0061546875e+05
    5.4159392603e-03    1.0062710156e+05
    5.4360851645e-03    1.0063885156e+05
    5.4562464356e-03    1.0065746094e+05
    5.4764230736e-03    1.0066412500e+05
    5.4966160096e-03    1.0067208594e+05
    5.5168238468e-03    1.0067675781e+05
    5.5370470509e-03    1.0068069531e+05
    5.5572865531e-03    1.0068900000e+05
    5.5775423534e-03    1.0069994531e+05
    5.5978130549e-03    1.0070921094e+05
    5.6181000546e-03    1.0072380469e+05
    5.6384028867e-03    1.0074191406e+05
    5.6587206200e-03    1.0076409375e+05
    5.6790532544e-03    1.0079302344e+05
    5.6994007900e-03    1.0082452344e+05
    5.7197632268e-03    1.0086811719e+05
    5.7401410304e-03    1.0091740625e+05
    5.7605337352e-03    1.0096791406e+05
    5.7809422724e-03    1.0102664844e+05
    5.8013652451e-03    1.0109143750e+05
    5.8218040504e-03    1.0116215625e+05
    5.8422577567e-03    1.0122975000e+05
    5.8627268299e-03    1.0130664844e+05
    5.8832112700e-03    1.0138828125e+05
    5.9037101455e-03    1.0146166406e+05
    5.9242248535e-03    1.0153506250e+05
    5.9447535314e-03    1.0160066406e+05
    5.9641525149e-03    1.0165266406e+05
    5.9830932878e-03    1.0169197656e+05
    6.0020405799e-03    1.0172680469e+05
    6.0210367665e-03    1.0174708594e+05
    6.0400799848e-03    1.0175542969e+05
    6.0591096990e-03    1.0174736719e+05
    6.0781282373e-03    1.0172985156e+05
    6.0972142965e-03    1.0169162500e+05
    6.1162756756e-03    1.0164105469e+05
    6.1353649944e-03    1.0156950781e+05
    6.1544459313e-03    1.0148797656e+05
    6.1734300107e-03    1.0139763281e+05
    6.1924448237e-03    1.0129977344e+05
    6.2115197070e-03    1.0119575000e+05
    6.2306127511e-03    1.0108358594e+05
    6.2497169711e-03    1.0096705469e+05
    6.2688281760e-03    1.0084805469e+05
    6.2879407778e-03    1.0073066406e+05
    6.3070552424e-03    1.0062092969e+05
    6.3261794858e-03    1.0051915625e+05
    6.3453060575e-03    1.0043577344e+05
    6.3644465990e-03    1.0036466406e+05
    6.3835908659e-03    1.0030500000e+05
    6.4027444459e-03    1.0026127344e+05
    6.4219115302e-03    1.0022896094e+05
    6.4410855994e-03    1.0021014844e+05
    6.4602680504e-03    1.0020553906e+05
    6.4794607460e-03    1.0021371875e+05
    6.4986641519e-03    1.0023514844e+05
    6.5178787336e-03    1.0026207031e+05
    6.5371058881e-03    1.0029566406e+05
    6.5563363023e-03    1.0033228906e+05
    6.5755699761e-03    1.0037362500e+05
    6.5948092379e-03    1.0041381250e+05
    6.6140629351e-03    1.0045527344e+05
    6.6333152354e-03    1.0049297656e+05
    6.6525745206e-03    1.0052744531e+05
    6.6718445159e-03    1.0056464844e+05
    6.6911154427e-03    1.0059247656e+05
    6.7104012705e-03    1.0061087500e+05
    6.7296870984e-03    1.0062135156e+05
    6.7489854991e-03    1.0063214844e+05
    6.7682852969e-03    1.0063166406e+05
    6.7875892855e-03    1.0062521094e+05
    6.8069072440e-03    1.0061485156e+05
    6.8262196146e-03    1.0060964844e+05
    6.8455408327e-03    1.0059239844e+05
    6.8648783490e-03    1.0057678906e+05
    6.8842126057e-03    1.0056177344e+05
    6.9035501219e-03    1.0055330469e+05
    6.9228983484e-03    1.0053596875e+05
    6.9422605447e-03    1.0053168750e+05
    6.9616222754e-03    1.0052750781e+05
    6.9809844717e-03    1.0053064844e+05
    7.0003494620e-03    1.0053024219e+05
    7.0197195746e-03    1.0053778906e+05
    7.0390999317e-03    1.0055605469e+05
    7.0584909990e-03    1.0057764844e+05
    7.0778946392e-03    1.0059931250e+05
    7.0973108523e-03    1.0062889844e+05
    7.1167377755e-03    1.0065605469e+05
    7.1361698210e-03    1.0068284375e+05
    7.1556069888e-03    1.0071353906e+05
    7.1750483476e-03    1.0073664844e+05
    7.1944966912e-03    1.0075962500e+05
    7.2139529511e-03    1.0078477344e+05
    7.2334166616e-03    1.0080827344e+05
    7.2528840974e-03    1.0082531250e+05
    7.2723543271e-03    1.0084569531e+05
    7.2918278165e-03    1.0085533594e+05
    7.3113050312e-03    1.0086428125e+05
    7.3307845742e-03    1.0087008594e+05
    7.3502692394e-03    1.0087512500e+05
    7.3697618209e-03    1.0088627344e+05
    7.3892641813e-03    1.0088571094e+05
    7.4087800458e-03    1.0089621875e+05
    7.4282912537e-03    1.0090914844e+05
    7.4477996677e-03    1.0092003125e+05
    7.4673094787e-03    1.0093257031e+05
    7.4868267402e-03    1.0094569531e+05
    7.5063589029e-03    1.0096100781e+05
    7.5258887373e-03    1.0098011719e+05
    7.5454111211e-03    1.0100583594e+05
    7.5649353676e-03    1.0103424219e+05
    7.5844703242e-03    1.0106628125e+05
    7.6040057465e-03    1.0110708594e+05
    7.6235276647e-03    1.0115756250e+05
    7.6430505142e-03    1.0121378906e+05
    7.6625877991e-03    1.0127967969e+05
    7.6821087860e-03    1.0135114844e+05
    7.7016241848e-03    1.0143514844e+05
    7.7211544849e-03    1.0152713281e+05
    7.7406810597e-03    1.0162822656e+05
    7.7602043748e-03    1.0173775781e+05
    7.7797495760e-03    1.0185252344e+05
    7.7992938459e-03    1.0196231250e+05
    7.8188432381e-03    1.0208039844e+05
    7.8384252265e-03    1.0219496094e+05
    7.8580006957e-03    1.0230758594e+05
    7.8775910661e-03    1.0241027344e+05
    7.8972103074e-03    1.0249513281e+05
    7.9168286175e-03    1.0257196875e+05
    7.9364804551e-03    1.0262996094e+05
    7.9561360180e-03    1.0267360156e+05
    7.9758102074e-03    1.0269377344e+05
    7.9955114052e-03    1.0269900000e+05
    8.0152126029e-03    1.0268313281e+05
    8.0349491909e-03    1.0265203906e+05
    8.0546662211e-03    1.0260525000e+05
    8.0743944272e-03    1.0254490625e+05
    8.0941170454e-03    1.0248024219e+05
    8.1138620153e-03    1.0240489844e+05
    8.1336386502e-03    1.0232962500e+05
    8.1534720957e-03    1.0225489844e+05
    8.1733558327e-03    1.0217782031e+05
    8.1932730973e-03    1.0210446094e+05
    8.2132071257e-03    1.0203743750e+05
    8.2330890000e-03    1.0198072656e+05
    8.2529615611e-03    1.0193791406e+05
    8.2727763802e-03    1.0190409375e+05
    8.2926023751e-03    1.0188435156e+05
    8.3124246448e-03    1.0187202344e+05
    8.3322748542e-03    1.0187016406e+05
    8.3521194756e-03    1.0187732031e+05
    8.3719678223e-03    1.0188947656e+05
    8.3917891607e-03    1.0190674219e+05
    8.4116021171e-03    1.0192578906e+05
    8.4314141423e-03    1.0193886719e+05
    8.4512168542e-03    1.0195427344e+05
    8.4710381925e-03    1.0197396094e+05
    8.4908353165e-03    1.0199083594e+05
    8.5106678307e-03    1.0202177344e+05
    8.5304882377e-03    1.0207121875e+05
    8.5503393784e-03    1.0217408594e+05
    8.5699046031e-03    1.0238639844e+05
    8.5892248899e-03    1.0279091406e+05
    8.6083402857e-03    1.0354886719e+05
    8.6272666231e-03    1.0491111719e+05
    8.6460309103e-03    1.0720555469e+05
    8.6646731943e-03    1.1083932031e+05
    8.6832325906e-03    1.1616572656e+05
    8.7017398328e-03    1.2329724219e+05
    8.7202098221e-03    1.3192153125e+05
    8.7386453524e-03    1.4120812500e+05
    8.7570473552e-03    1.4993529688e+05
    8.7753897533e-03    1.5689629688e+05
    8.7936492637e-03    1.6135900000e+05
    8.8118780404e-03    1.6325950000e+05
    8.8300397620e-03    1.6308546875e+05
    8.8481390849e-03    1.6155893750e+05
    8.8662039489e-03    1.5940445312e+05
    8.8842641562e-03    1.5725309375e+05
    8.9023411274e-03    1.5542529688e+05
    8.9204348624e-03    1.5401001562e+05
    8.9385388419e-03    1.5296623438e+05
    8.9566456154e-03    1.5214328125e+05
    8.9747514576e-03    1.5134629688e+05
    8.9928600937e-03    1.5042898438e+05
    9.0109808370e-03    1.4929260938e+05
    9.0291155502e-03    1.4792931250e+05
    9.0472688898e-03    1.4637110938e+05
    9.0654399246e-03    1.4468528125e+05
    9.0836230665e-03    1.4298279688e+05
    9.1018192470e-03    1.4132434375e+05
    9.1200266033e-03    1.3977821875e+05
    9.1382460669e-03    1.3837056250e+05
    9.1564757749e-03    1.3708587500e+05
    9.1747231781e-03    1.3591406250e+05
    9.1929892078e-03    1.3483287500e+05
    9.2112747952e-03    1.3380332812e+05
    9.2295790091e-03    1.3281493750e+05
    9.2479009181e-03    1.3184064062e+05
    9.2662386596e-03    1.3088886719e+05
    9.2845931649e-03    1.2996343750e+05
    9.3029672280e-03    1.2907127344e+05
    9.3213599175e-03    1.2822072656e+05
    9.3397712335e-03    1.2743144531e+05
    9.3582011759e-03    1.2670556250e+05
    9.3766497448e-03    1.2603241406e+05
    9.3951150775e-03    1.2541508594e+05
    9.4135999680e-03    1.2483362500e+05
    9.4321016222e-03    1.2428402344e+05
    9.4506228343e-03    1.2375953906e+05
    9.4691645354e-03    1.2323785156e+05
    9.4877239317e-03    1.2273646094e+05
    9.5063010231e-03    1.2223703125e+05
    9.5248948783e-03    1.2174685156e+05
    9.5435054973e-03    1.2127264844e+05
    9.5621328801e-03    1.2081602344e+05
    9.5807760954e-03    1.2038074219e+05
    9.5994332805e-03    1.1996635156e+05
    9.6181081608e-03    1.1957582031e+05
    9.6367979422e-03    1.1920541406e+05
    9.6555035561e-03    1.1885415625e+05
    9.6742231399e-03    1.1851587500e+05
    9.6929576248e-03    1.1819121875e+05
    9.7117051482e-03    1.1788621094e+05
    9.7304685041e-03    1.1758694531e+05
    9.7492448986e-03    1.1730603125e+05
    9.7680361941e-03    1.1703675000e+05
    9.7868405282e-03    1.1678296875e+05
    9.8056588322e-03    1.1654463281e+05
    9.8244920373e-03    1.1632153906e+05
    9.8433364183e-03    1.1611210156e+05
    9.8621929064e-03    1.1591821875e+05
    9.8810633644e-03    1.1572764844e+05
    9.8999459296e-03    1.1554265625e+05
    9.9188406020e-03    1.1536960156e+05
    9.9377483130e-03    1.1519189844e+05
    9.9566690624e-03    1.1502782031e+05
    9.9756028503e-03    1.1486025781e+05
    9.9945487455e-03    1.1470241406e+05
    1.0013507679e-02    1.1455409375e+05
    1.0032479651e-02    1.1440925000e+05
    1.0051463731e-02    1.1427738281e+05
    1.0070459917e-02    1.1414381250e+05
    1.0089469142e-02    1.1402463281e+05
    1.0108492337e-02    1.1390952344e+05
    1.0127528571e-02    1.1379675000e+05
    1.0146577843e-02    1.1369134375e+05
    1.0165639222e-02    1.1358853906e+05
    1.0184712708e-02    1.1348246094e+05
    1.0203798302e-02    1.1337766406e+05
    1.0222896002e-02    1.1328178906e+05
    1.0242006741e-02    1.1317777344e+05
    1.0261129588e-02    1.1307342969e+05
    1.0280264542e-02    1.1297625000e+05
    1.0299413465e-02    1.1288988281e+05
    1.0318575427e-02    1.1280160156e+05
    1.0337748565e-02    1.1272147656e+05
    1.0356934741e-02    1.1263933594e+05
    1.0376133956e-02    1.1255727344e+05
    1.0395346209e-02    1.1247233594e+05
    1.0414571501e-02    1.1238618750e+05
    1.0433809832e-02    1.1229339844e+05
    1.0453061201e-02    1.1219747656e+05
    1.0472324677e-02    1.1209177344e+05
    1.0491601191e-02    1.1197778906e+05
    1.0510892607e-02    1.1186346875e+05
    1.0530196130e-02    1.1174133594e+05
    1.0549513623e-02    1.1162521094e+05
    1.0568842292e-02    1.1150702344e+05
    1.0588183999e-02    1.1139658594e+05
    1.0607538745e-02    1.1129139844e+05
    1.0626907460e-02    1.1120228906e+05
    1.0646289214e-02    1.1112596875e+05
    1.0665684007e-02    1.1105572656e+05
    1.0685092770e-02    1.1100514844e+05
    1.0704516433e-02    1.1096647656e+05
    1.0723951273e-02    1.1093312500e+05
    1.0743400082e-02    1.1089771094e+05
    1.0762862861e-02    1.1087267969e+05
    1.0782338679e-02    1.1084366406e+05
    1.0801829398e-02    1.1081605469e+05
    1.0821334086e-02    1.1079025000e+05
    1.0840852745e-02    1.1075766406e+05
    1.0860386305e-02    1.1072052344e+05
    1.0879932903e-02    1.1068278906e+05
    1.0899493471e-02    1.1063671094e+05
    1.0919069871e-02    1.1059178125e+05
    1.0938662104e-02    1.1053950781e+05
    1.0958270170e-02    1.1049344531e+05
    1.0977892205e-02    1.1044607031e+05
    1.0997531936e-02    1.1039685156e+05
    1.1017187499e-02    1.1035036719e+05
    1.1036860757e-02    1.1029777344e+05
    1.1056551710e-02    1.1025322656e+05
    1.1076259427e-02    1.1020822656e+05
    1.1095987633e-02    1.1016510156e+05
    1.1115733534e-02    1.1012146094e+05
    1.1135498993e-02    1.1008016406e+05
    1.1155283079e-02    1.1003591406e+05
    1.1175086722e-02    1.0998910156e+05
    1.1194912717e-02    1.0994296875e+05
    1.1214758269e-02    1.0988994531e+05
    1.1234625243e-02    1.0984353906e+05
    1.1254511774e-02    1.0979466406e+05
    1.1274418794e-02    1.0974027344e+05
    1.1294347234e-02    1.0968459375e+05
    1.1314296164e-02    1.0962880469e+05
    1.1334266514e-02    1.0956750000e+05
    1.1354257353e-02    1.0950460156e+05
    1.1374268681e-02    1.0944240625e+05
    1.1394302361e-02    1.0938553906e+05
    1.1414355598e-02    1.0932313281e+05
    1.1434430256e-02    1.0926612500e+05
    1.1454525404e-02    1.0921458594e+05
    1.1474640109e-02    1.0916746094e+05
    1.1494777165e-02    1.0912497656e+05
    1.1514934711e-02    1.0908278906e+05
    1.1535113677e-02    1.0904975781e+05
    1.1555313133e-02    1.0901669531e+05
    1.1575534008e-02    1.0898372656e+05
    1.1595774442e-02    1.0894938281e+05
    1.1616035365e-02    1.0890921094e+05
    1.1636316776e-02    1.0886568750e+05
    1.1656619608e-02    1.0881728125e+05
    1.1676942930e-02    1.0876518750e+05
    1.1697287671e-02    1.0870711719e+05
    1.1717652902e-02    1.0864303125e+05
    1.1738038622e-02    1.0857794531e+05
    1.1758443899e-02    1.0850338281e+05
    1.1778870597e-02    1.0843261719e+05
    1.1799318716e-02    1.0836193750e+05
    1.1819788255e-02    1.0828810156e+05
    1.1840280145e-02    1.0821525000e+05
    1.1860790662e-02    1.0814002344e+05
    1.1881321669e-02    1.0806444531e+05
    1.1901874095e-02    1.0799596094e+05
    1.1922447011e-02    1.0793094531e+05
    1.1943042278e-02    1.0787862500e+05
    1.1963658035e-02    1.0782716406e+05
    1.1984295212e-02    1.0777537500e+05
    1.2004952878e-02    1.0772703125e+05
    1.2025631964e-02    1.0768172656e+05
    1.2046331540e-02    1.0764096875e+05
    1.2067052536e-02    1.0759352344e+05
    1.2087795883e-02    1.0755728906e+05
    1.2108558789e-02    1.0751650000e+05
    1.2129344046e-02    1.0747875781e+05
    1.2150149792e-02    1.0742915625e+05
    1.2170976959e-02    1.0738053906e+05
    1.2191825546e-02    1.0732658594e+05
    1.2212695554e-02    1.0726750000e+05
    1.2233586982e-02    1.0721241406e+05
    1.2254500762e-02    1.0715243750e+05
    1.2275436893e-02    1.0709746875e+05
    1.2296394445e-02    1.0703885156e+05
    1.2317374349e-02    1.0697903906e+05
    1.2338375673e-02    1.0691994531e+05
    1.2359398417e-02    1.0685439844e+05
    1.2380442582e-02    1.0679014844e+05
    1.2401508167e-02    1.0672652344e+05
    1.2422595173e-02    1.0667135156e+05
    1.2443703599e-02    1.0661033594e+05
    1.2464834377e-02    1.0656643750e+05
    1.2485986575e-02    1.0652003125e+05
    1.2507158332e-02    1.0647571875e+05
    1.2528351508e-02    1.0643185156e+05
    1.2549565174e-02    1.0639072656e+05
    1.2570801191e-02    1.0634400000e+05
    1.2592058629e-02    1.0630493750e+05
    1.2613337487e-02    1.0626587500e+05
    1.2634636834e-02    1.0622234375e+05
    1.2655957602e-02    1.0617189844e+05
    1.2677297927e-02    1.0611835156e+05
    1.2698660605e-02    1.0606942969e+05
    1.2720043771e-02    1.0601437500e+05
    1.2741449289e-02    1.0595671875e+05
    1.2762876227e-02    1.0589484375e+05
    1.2784325518e-02    1.0582909375e+05
    1.2805794366e-02    1.0575830469e+05
    1.2827285565e-02    1.0569027344e+05
    1.2848797254e-02    1.0561186719e+05
    1.2870330364e-02    1.0553889844e+05
    1.2891885825e-02    1.0546114844e+05
    1.2913462706e-02    1.0537394531e+05
    1.2935061008e-02    1.0528491406e+05
    1.2956679799e-02    1.0519052344e+05
    1.2978320010e-02    1.0509328906e+05
    1.2999981642e-02    1.0499908594e+05
    1.3021663763e-02    1.0491417969e+05
    1.3043368235e-02    1.0482607031e+05
    1.3065092266e-02    1.0474082031e+05
    1.3086837716e-02    1.0467166406e+05
    1.3108605519e-02    1.0460383594e+05
    1.3130392879e-02    1.0455464844e+05
    1.3152201660e-02    1.0451296875e+05
    1.3174032792e-02    1.0448489844e+05
    1.3195885345e-02    1.0445605469e+05
    1.3217759319e-02    1.0443442969e+05
    1.3239653781e-02    1.0441422656e+05
    1.3261569664e-02    1.0439441406e+05
    1.3283506967e-02    1.0436175781e+05
    1.3305463828e-02    1.0433558594e+05
    1.3327440247e-02    1.0429800781e+05
    1.3349435292e-02    1.0426113281e+05
    1.3371448033e-02    1.0421561719e+05
    1.3393475674e-02    1.0417439844e+05
    1.3415516354e-02    1.0412597656e+05
    1.3437564485e-02    1.0408025000e+05
    1.3459613547e-02    1.0403914844e+05
    1.3481658883e-02    1.0400306250e+05
    1.3503690250e-02    1.0396833594e+05
    1.3525702059e-02    1.0393396875e+05
    1.3547683135e-02    1.0389883594e+05
    1.3569628820e-02    1.0387393750e+05
    1.3591531664e-02    1.0384439844e+05
    1.3613392599e-02    1.0381803125e+05
    1.3635210693e-02    1.0378922656e+05
    1.3656994328e-02    1.0377012500e+05
    1.3678749092e-02    1.0374500781e+05
    1.3700488023e-02    1.0371756250e+05
    1.3722228818e-02    1.0369108594e+05
    1.3743981719e-02    1.0367328125e+05
    1.3765762560e-02    1.0364678906e+05
    1.3787578791e-02    1.0362190625e+05
    1.3809437864e-02    1.0360425000e+05
    1.3831341639e-02    1.0358546094e+05
    1.3853288256e-02    1.0356685156e+05
    1.3875273056e-02    1.0354935156e+05
    1.3897285797e-02    1.0353203125e+05
    1.3919321820e-02    1.0351605469e+05
    1.3941374607e-02    1.0350577344e+05
    1.3963440433e-02    1.0350343750e+05
    1.3985517435e-02    1.0351922656e+05
    1.4007603750e-02    1.0355305469e+05
    1.4029704034e-02    1.0361502344e+05
    1.4051820152e-02    1.0373288281e+05
    1.4073957689e-02    1.0390027344e+05
    1.4096121304e-02    1.0414310156e+05
    1.4118315652e-02    1.0448060156e+05
    1.4140545391e-02    1.0492208594e+05
    1.4162814245e-02    1.0548042969e+05
    1.4185124077e-02    1.0614647656e+05
    1.4207473956e-02    1.0693368750e+05
    1.4229862019e-02    1.0780216406e+05
    1.4252286404e-02    1.0871046094e+05
    1.4274741523e-02    1.0961296094e+05
    1.4297228307e-02    1.1042964844e+05
    1.4319745824e-02    1.1109859375e+05
    1.4342290349e-02    1.1157968750e+05
    1.4364863746e-02    1.1183615625e+05
    1.4387467876e-02    1.1186052344e+05
    1.4410103671e-02    1.1166342969e+05
    1.4432771131e-02    1.1126733594e+05
    1.4455472119e-02    1.1071449219e+05
    1.4478209428e-02    1.1005202344e+05
    1.4500979334e-02    1.0933358594e+05
    1.4523783699e-02    1.0861869531e+05
    1.4546621591e-02    1.0794374219e+05
    1.4569494873e-02    1.0735666406e+05
    1.4592399821e-02    1.0685693750e+05
    1.4615339227e-02    1.0647183594e+05
    1.4638305642e-02    1.0616888281e+05
    1.4661304653e-02    1.0592427344e+05
    1.4684336260e-02    1.0568364844e+05
    1.4707398601e-02    1.0542577344e+05
    1.4730494469e-02    1.0511346875e+05
    1.4753622934e-02    1.0473472656e+05
    1.4776783995e-02    1.0429050781e+05
    1.4799979515e-02    1.0379472656e+05
    1.4823205769e-02    1.0326083594e+05
    1.4846466482e-02    1.0272289844e+05
    1.4869757928e-02    1.0219350781e+05
    1.4893081971e-02    1.0170846094e+05
    1.4916437678e-02    1.0127713281e+05
    1.4939822257e-02    1.0091865625e+05
    1.4963239431e-02    1.0063621875e+05
    1.4986685477e-02    1.0042583594e+05
    1.5010161325e-02    1.0028012500e+05
    1.5033668838e-02    1.0019566406e+05
    1.5057205223e-02    1.0014939844e+05
    1.5080772340e-02    1.0013907031e+05
    1.5104367398e-02    1.0013911719e+05
    1.5127992257e-02    1.0014732031e+05
    1.5151646920e-02    1.0014782031e+05
    1.5175330453e-02    1.0013272656e+05
    1.5199041925e-02    1.0010358594e+05
    1.5222782269e-02    1.0006109375e+05
    1.5246548690e-02    1.0001078906e+05
    1.5270343982e-02    9.9958148438e+04
    1.5294168144e-02    9.9913289062e+04
    1.5318016522e-02    9.9890773438e+04
    1.5341891907e-02    9.9895562500e+04
    1.5365792438e-02    9.9929656250e+04
    1.5389721841e-02    9.9996601562e+04
    1.5413676389e-02    1.0009034375e+05
    1.5437657945e-02    1.0020802344e+05
    1.5461664647e-02    1.0034885156e+05
    1.5485695563e-02    1.0049046875e+05
    1.5509752557e-02    1.0064059375e+05
    1.5533835627e-02    1.0078427344e+05
    1.5557944775e-02    1.0091519531e+05
    1.5582079068e-02    1.0103435156e+05
    1.5606240369e-02    1.0113458594e+05
    1.5630424023e-02    1.0122339844e+05
    1.5654634684e-02    1.0128677344e+05
    1.5678871423e-02    1.0132665625e+05
    1.5703132376e-02    1.0135447656e+05
    1.5727419406e-02    1.0136828125e+05
    1.5751728788e-02    1.0137852344e+05
    1.5776060522e-02    1.0138875781e+05
    1.5800418332e-02    1.0141221094e+05
    1.5824800357e-02    1.0144503125e+05
    1.5849204734e-02    1.0149728906e+05
    1.5873633325e-02    1.0154997656e+05
    1.5898084268e-02    1.0161196094e+05
    1.5922557563e-02    1.0167562500e+05
    1.5947058797e-02    1.0172514844e+05
    1.5971582383e-02    1.0176872656e+05
    1.5996130183e-02    1.0179858594e+05
    1.6020702198e-02    1.0182013281e+05
    1.6045298427e-02    1.0182931250e+05
    1.6069920734e-02    1.0182383594e+05
    1.6094569117e-02    1.0182380469e+05
    1.6119243577e-02    1.0182580469e+05
    1.6143942252e-02    1.0183108594e+05
    1.6168667004e-02    1.0183974219e+05
    1.6193419695e-02    1.0184721094e+05
    1.6218200326e-02    1.0186207031e+05
    1.6243007034e-02    1.0188294531e+05
    1.6267839819e-02    1.0190078906e+05
    1.6292702407e-02    1.0192161719e+05
    1.6317596659e-02    1.0193466406e+05
    1.6342513263e-02    1.0193816406e+05
    1.6367461532e-02    1.0193802344e+05
    1.6392435879e-02    1.0193171094e+05
    1.6417443752e-02    1.0192628906e+05
    1.6442479566e-02    1.0191457031e+05
    1.6467543319e-02    1.0189884375e+05
    1.6492636874e-02    1.0187224219e+05
    1.6517756507e-02    1.0184941406e+05
    1.6542907804e-02    1.0181882031e+05
    1.6568088904e-02    1.0178610156e+05
    1.6593271866e-02    1.0175727344e+05
    1.6618426889e-02    1.0172464844e+05
    1.6643559560e-02    1.0169187500e+05
    1.6668669879e-02    1.0165575000e+05
    1.6693757847e-02    1.0162728906e+05
    1.6718825325e-02    1.0159263281e+05
    1.6743874177e-02    1.0156374219e+05
    1.6768900678e-02    1.0152850000e+05
    1.6793908551e-02    1.0149099219e+05
    1.6818899661e-02    1.0145318750e+05
    1.6843874007e-02    1.0141065625e+05
    1.6868829727e-02    1.0136547656e+05
    1.6893770546e-02    1.0131808594e+05
    1.6918692738e-02    1.0126628906e+05
    1.6943598166e-02    1.0121472656e+05
    1.6968490556e-02    1.0115628906e+05
    1.6993366182e-02    1.0110221094e+05
    1.7018226907e-02    1.0104886719e+05
    1.7043072730e-02    1.0100346875e+05
    1.7067901790e-02    1.0095835156e+05
    1.7092714086e-02    1.0091558594e+05
    1.7117511481e-02    1.0087303906e+05
    1.7142292112e-02    1.0083941406e+05
    1.7167057842e-02    1.0079913281e+05
    1.7191808671e-02    1.0076590625e+05
    1.7216544598e-02    1.0073621094e+05
    1.7241263762e-02    1.0070971094e+05
    1.7265968025e-02    1.0069300000e+05
    1.7290659249e-02    1.0068099219e+05
    1.7315333709e-02    1.0067409375e+05
    1.7339993268e-02    1.0067446094e+05
    1.7364639789e-02    1.0067868750e+05
    1.7389267683e-02    1.0068536719e+05
    1.7413880676e-02    1.0070036719e+05
    1.7438478768e-02    1.0071321094e+05
    1.7463061959e-02    1.0072311719e+05
    1.7487626523e-02    1.0073446094e+05
    1.7512176186e-02    1.0074741406e+05
    1.7536709085e-02    1.0075006250e+05
    1.7561223358e-02    1.0074589844e+05
    1.7585720867e-02    1.0073938281e+05
    1.7610201612e-02    1.0073237500e+05
    1.7634663731e-02    1.0071165625e+05
    1.7659107223e-02    1.0068321094e+05
    1.7683532089e-02    1.0065024219e+05
    1.7707940191e-02    1.0060531250e+05
    1.7732329667e-02    1.0056193750e+05
    1.7756698653e-02    1.0051778906e+05
    1.7781050876e-02    1.0046849219e+05
    1.7805384472e-02    1.0042149219e+05
    1.7829699442e-02    1.0037334375e+05
    1.7853999510e-02    1.0032806250e+05
    1.7878280953e-02    1.0028252344e+05
    1.7902545631e-02    1.0024891406e+05
    1.7926793545e-02    1.0022497656e+05
    1.7951028422e-02    1.0020775000e+05
    1.7975246534e-02    1.0019458594e+05
    1.7999447882e-02    1.0018953906e+05
    1.8023636192e-02    1.0018696875e+05
    1.8047811463e-02    1.0018584375e+05
    1.8071975559e-02    1.0018722656e+05
    1.8096126616e-02    1.0019925781e+05
    1.8120266497e-02    1.0020546094e+05
    1.8144397065e-02    1.0022724219e+05
    1.8168520182e-02    1.0024031250e+05
    1.8192630261e-02    1.0025541406e+05
    1.8216732889e-02    1.0026553906e+05
    1.8240824342e-02    1.0027902344e+05
    1.8264908344e-02    1.0028706250e+05
    1.8288983032e-02    1.0030291406e+05
    1.8313048407e-02    1.0031088281e+05
    1.8337102607e-02    1.0031710156e+05
    1.8361147493e-02    1.0032802344e+05
    1.8385183066e-02    1.0033583594e+05
    1.8409207463e-02    1.0034127344e+05
    1.8433224410e-02    1.0033984375e+05
    1.8457230181e-02    1.0033912500e+05
    1.8481226638e-02    1.0034521094e+05
    1.8505210057e-02    1.0034428906e+05
    1.8529184163e-02    1.0033586719e+05
    1.8553148955e-02    1.0033042969e+05
    1.8577100709e-02    1.0032096094e+05
    1.8601041287e-02    1.0031271875e+05
    1.8624972552e-02    1.0029919531e+05
    1.8648892641e-02    1.0027871875e+05
    1.8672801554e-02    1.0026216406e+05
    1.8696699291e-02    1.0023953125e+05
    1.8720587716e-02    1.0022303906e+05
    1.8744463101e-02    1.0020358594e+05
    1.8768329173e-02    1.0019746875e+05
    1.8792184070e-02    1.0018517969e+05
    1.8816027790e-02    1.0017106250e+05
    1.8839860335e-02    1.0016360156e+05
    1.8863683566e-02    1.0016121094e+05
    1.8887493759e-02    1.0017878125e+05
    1.8911294639e-02    1.0019558594e+05
    1.8935086206e-02    1.0022160156e+05
    1.8958866596e-02    1.0026181250e+05
    1.8982635811e-02    1.0030908594e+05
    1.9006397575e-02    1.0036022656e+05
    1.9030146301e-02    1.0041543750e+05
    1.9053885713e-02    1.0047821094e+05
    1.9077615812e-02    1.0054868750e+05
    1.9101334736e-02    1.0061590625e+05
    1.9125042483e-02    1.0068061719e+05
    1.9148740917e-02    1.0074730469e+05
    1.9172428176e-02    1.0080043750e+05
    1.9196104258e-02    1.0085688281e+05
    1.9219771028e-02    1.0090550781e+05
    1.9243424758e-02    1.0095452344e+05
    1.9267069176e-02    1.0098935156e+05
    1.9290700555e-02    1.0101953906e+05
    1.9314322621e-02    1.0104502344e+05
    1.9337931648e-02    1.0106038281e+05
    1.9361529499e-02    1.0107991406e+05
    1.9385114312e-02    1.0109275781e+05
    1.9408687949e-02    1.0110950000e+05
    1.9432250410e-02    1.0112877344e+05
    1.9455801696e-02    1.0115428125e+05
    1.9479339942e-02    1.0118252344e+05
    1.9502865151e-02    1.0121071094e+05
    1.9526379183e-02    1.0124914844e+05
    1.9549878314e-02    1.0128939844e+05
    1.9573366269e-02    1.0133615625e+05
    1.9596841186e-02    1.0139291406e+05
    1.9620303065e-02    1.0145058594e+05
    1.9643751904e-02    1.0151719531e+05
    1.9667187706e-02    1.0158963281e+05
    1.9690606743e-02    1.0166950781e+05
    1.9714014605e-02    1.0175558594e+05
    1.9737409428e-02    1.0184921094e+05
    1.9760791212e-02    1.0194696875e+05
    1.9784159958e-02    1.0205674219e+05
    1.9807513803e-02    1.0217646094e+05
    1.9830854610e-02    1.0230050781e+05
    1.9854182377e-02    1.0242164844e+05
    1.9877497107e-02    1.0254368750e+05
    1.9900798798e-02    1.0267268750e+05
    1.9924087450e-02    1.0280308594e+05
    1.9947361201e-02    1.0292268750e+05
    1.9970623776e-02    1.0303903125e+05
    1.9993871450e-02    1.0314757031e+05
    2.0017107949e-02    1.0323691406e+05
    2.0040329546e-02    1.0331272656e+05
    2.0063538104e-02    1.0335855469e+05
    2.0086731762e-02    1.0337763281e+05
    2.0109914243e-02    1.0337927344e+05
    2.0133081824e-02    1.0334264844e+05
    2.0156236365e-02    1.0327816406e+05
    2.0179376006e-02    1.0318164844e+05
    2.0202504471e-02    1.0305625000e+05
    2.0225618035e-02    1.0290652344e+05
    2.0248720422e-02    1.0272617969e+05
    2.0271807909e-02    1.0253006250e+05
    2.0294882357e-02    1.0231022656e+05
    2.0317947492e-02    1.0208031250e+05
    2.0340997726e-02    1.0184183594e+05
    2.0364036784e-02    1.0161707031e+05
    2.0387060940e-02    1.0140346875e+05
    2.0410073921e-02    1.0121799219e+05
    2.0433073863e-02    1.0105205469e+05
    2.0456060767e-02    1.0092346094e+05
    2.0479036495e-02    1.0082853125e+05
    2.0501999184e-02    1.0075710156e+05
    2.0524948835e-02    1.0072106250e+05
    2.0547885448e-02    1.0070785156e+05
    2.0570809022e-02    1.0071021094e+05
    2.0593719557e-02    1.0072099219e+05
    2.0616617054e-02    1.0074816406e+05
    2.0639499649e-02    1.0077897656e+05
    2.0662369207e-02    1.0081742969e+05
    2.0685223863e-02    1.0085666406e+05
    2.0708063617e-02    1.0089309375e+05
    2.0730890334e-02    1.0092760156e+05
    2.0753700286e-02    1.0094983594e+05
    2.0776495337e-02    1.0097608594e+05
    2.0799275488e-02    1.0099344531e+05
    2.0822042599e-02    1.0100721094e+05
    2.0844791085e-02    1.0101790625e+05
    2.0867524669e-02    1.0101942969e+05
    2.0890241489e-02    1.0102165625e+05
    2.0912945271e-02    1.0102910156e+05
    2.0935632288e-02    1.0103206250e+05
    2.0958306268e-02    1.0104114844e+05
    2.0980965346e-02    1.0104813281e+05
    2.1003607661e-02    1.0106164844e+05
    2.1026238799e-02    1.0107836719e+05
    2.1048855036e-02    1.0110703906e+05
    2.1071458235e-02    1.0114144531e+05
    2.1094048396e-02    1.0117750781e+05
    2.1116625518e-02    1.0121975781e+05
    2.1139191464e-02    1.0127683594e+05
    2.1161744371e-02    1.0132715625e+05
    2.1184286103e-02    1.0139002344e+05
    2.1206818521e-02    1.0145689844e+05
    2.1229337901e-02    1.0151758594e+05
    2.1251846105e-02    1.0158255469e+05
    2.1274344996e-02    1.0165177344e+05
    2.1296832711e-02    1.0171641406e+05
    2.1319312975e-02    1.0178639844e+05
    2.1341778338e-02    1.0185418750e+05
    2.1364232525e-02    1.0191925781e+05
    2.1386675537e-02    1.0197912500e+05
    2.1409107372e-02    1.0203400781e+05
    2.1431528032e-02    1.0209128125e+05
    2.1453931928e-02    1.0214468750e+05
    2.1476324648e-02    1.0219415625e+05
    2.1498700604e-02    1.0223878125e+05
    2.1521063522e-02    1.0227934375e+05
    2.1543409675e-02    1.0231465625e+05
    2.1565740928e-02    1.0233971875e+05
    2.1588053554e-02    1.0235410156e+05
    2.1610351279e-02    1.0236781250e+05
    2.1632634103e-02    1.0237307031e+05
    2.1654898301e-02    1.0237525000e+05
    2.1677147597e-02    1.0236936719e+05
    2.1699378267e-02    1.0236263281e+05
    2.1721594036e-02    1.0235683594e+05
    2.1743793041e-02    1.0234024219e+05
    2.1765975282e-02    1.0233011719e+05
    2.1788140759e-02    1.0230589844e+05
    2.1810289472e-02    1.0228515625e+05
    2.1832419559e-02    1.0225932031e+05
    2.1854531020e-02    1.0223503906e+05
    2.1876627579e-02    1.0220584375e+05
    2.1898705512e-02    1.0218519531e+05
    2.1920768544e-02    1.0215464844e+05
    2.1942811087e-02    1.0212010156e+05
    2.1964838728e-02    1.0208177344e+05
    2.1986849606e-02    1.0204516406e+05
    2.2008845583e-02    1.0200641406e+05
    2.2030822933e-02    1.0196959375e+05
    2.2052785382e-02    1.0193383594e+05
    2.2074732929e-02    1.0189950000e+05
    2.2096665576e-02    1.0186449219e+05
    2.2118583322e-02    1.0183164844e+05
    2.2140489891e-02    1.0180278906e+05
    2.2162377834e-02    1.0178122656e+05
    2.2184254602e-02    1.0176594531e+05
    2.2206118330e-02    1.0175143750e+05
    2.2227969021e-02    1.0174057031e+05
    2.2249806672e-02    1.0173310156e+05
    2.2271629423e-02    1.0172943750e+05
    2.2293440998e-02    1.0173178906e+05
    2.2315241396e-02    1.0173460156e+05
    2.2337028757e-02    1.0174427344e+05
    2.2358803079e-02    1.0175514844e+05
    2.2380566224e-02    1.0176089844e+05
    2.2402318195e-02    1.0176835156e+05
    2.2424057126e-02    1.0177691406e+05
    2.2445784882e-02    1.0178494531e+05
    2.2467501462e-02    1.0178860156e+05
    2.2489206865e-02    1.0179021094e+05
    2.2510899231e-02    1.0179527344e+05
    2.2532582283e-02    1.0179585156e+05
    2.2554252297e-02    1.0179103906e+05
    2.2575911134e-02    1.0178558594e+05
    2.2597560659e-02    1.0177088281e+05
    2.2619199008e-02    1.0176221875e+05
    2.2640828043e-02    1.0175390625e+05
    2.2662445903e-02    1.0173990625e+05
    2.2684050724e-02    1.0172422656e+05
    2.2705646232e-02    1.0170877344e+05
    2.2727232426e-02    1.0168766406e+05
    2.2748809308e-02    1.0167312500e+05
    2.2770375013e-02    1.0165940625e+05
    2.2791929543e-02    1.0165335156e+05
    2.2813472897e-02    1.0163310156e+05
    2.2835006937e-02    1.0161921875e+05
    2.2856531665e-02    1.0160477344e+05
    2.2878047079e-02    1.0159071094e+05
    2.2899549454e-02    1.0157606250e+05
    2.2921044379e-02    1.0156102344e+05
    2.2942528129e-02    1.0154887500e+05
    2.2964000702e-02    1.0153550000e+05
    2.2985465825e-02    1.0152815625e+05
    2.3006917909e-02    1.0151752344e+05
    2.3028360680e-02    1.0151175000e+05
    2.3049792275e-02    1.0150460156e+05
    2.3071214557e-02    1.0150309375e+05
    2.3092625663e-02    1.0150197656e+05
    2.3114029318e-02    1.0150456250e+05
    2.3135419935e-02    1.0151177344e+05
    2.3156799376e-02    1.0151596875e+05
    2.3178169504e-02    1.0152471094e+05
    2.3199530318e-02    1.0153334375e+05
    2.3220879957e-02    1.0153991406e+05
    2.3242218420e-02    1.0154589844e+05
    2.3263547570e-02    1.0155521094e+05
    2.3284865543e-02    1.0155843750e+05
    2.3306174204e-02    1.0156909375e+05
    2.3327469826e-02    1.0157577344e+05
    2.3348756135e-02    1.0158024219e+05
    2.3370031267e-02    1.0157750000e+05
    2.3391297087e-02    1.0158378906e+05
    2.3412553594e-02    1.0157863281e+05
    2.3433798924e-02    1.0158333594e+05
    2.3455033079e-02    1.0158358594e+05
    2.3476256058e-02    1.0158009375e+05
    2.3497469723e-02    1.0157680469e+05
    2.3518672213e-02    1.0157739844e+05
    2.3539865389e-02    1.0157280469e+05
    2.3561049253e-02    1.0156767969e+05
    2.3582221940e-02    1.0156452344e+05
    2.3603385314e-02    1.0155896094e+05
    2.3624535650e-02    1.0155030469e+05
    2.3645676672e-02    1.0154641406e+05
    2.3666808382e-02    1.0154010156e+05
    2.3687927052e-02    1.0153825781e+05
    2.3709038273e-02    1.0154055469e+05
    2.3730138317e-02    1.0153617969e+05
    2.3751227185e-02    1.0153300000e+05
    2.3772306740e-02    1.0153085156e+05
    2.3793375120e-02    1.0152300000e+05
    2.3814432323e-02    1.0152053906e+05
    2.3835480213e-02    1.0151803125e+05
    2.3856516927e-02    1.0151910156e+05
    2.3877544329e-02    1.0151393750e+05
    2.3898560554e-02    1.0150584375e+05
    2.3919565603e-02    1.0149785156e+05
    2.3940561339e-02    1.0149521094e+05
    2.3961545900e-02    1.0149235156e+05
    2.3982519284e-02    1.0148343750e+05
    2.4003483355e-02    1.0147906250e+05
    2.4024436250e-02    1.0147127344e+05
    2.4045377970e-02    1.0146637500e+05
    2.4066310376e-02    1.0145903906e+05
    2.4087233469e-02    1.0145368750e+05
    2.4108145386e-02    1.0144958594e+05
    2.4129044265e-02    1.0144300781e+05
    2.4149935693e-02    1.0143644531e+05
    2.4170814082e-02    1.0143096875e+05
    2.4191683158e-02    1.0141725000e+05
    2.4212542921e-02    1.0140988281e+05
    2.4233391508e-02    1.0140256250e+05
    2.4254228920e-02    1.0139874219e+05
    2.4275057018e-02    1.0139160156e+05
    2.4295873940e-02    1.0138571094e+05
    2.4316681549e-02    1.0138128906e+05
    2.4337477982e-02    1.0137728906e+05
    2.4358265102e-02    1.0138296875e+05
    2.4379042909e-02    1.0138014844e+05
    2.4399809539e-02    1.0138237500e+05
    2.4420566857e-02    1.0138209375e+05
    2.4441312999e-02    1.0138960156e+05
    2.4462047964e-02    1.0139810156e+05
    2.4482775480e-02    1.0140672656e+05
    2.4503491819e-02    1.0142834375e+05
    2.4524198845e-02    1.0144358594e+05
    2.4544894695e-02    1.0145933594e+05
    2.4565581232e-02    1.0148693750e+05
    2.4586258456e-02    1.0150677344e+05
    2.4606924504e-02    1.0152671875e+05
    2.4627581239e-02    1.0154924219e+05
    2.4648228660e-02    1.0158136719e+05
    2.4668866768e-02    1.0160488281e+05
    2.4689495564e-02    1.0163810156e+05
    2.4710113183e-02    1.0166647656e+05
    2.4730721489e-02    1.0169213281e+05
    2.4751318619e-02    1.0171153906e+05
    2.4771906435e-02    1.0173213281e+05
    2.4792486802e-02    1.0175041406e+05
    2.4813055992e-02    1.0176871875e+05
    2.4833614007e-02    1.0177796094e+05
    2.4854162708e-02    1.0179025781e+05
    2.4874702096e-02    1.0179528125e+05
    2.4895232171e-02    1.0179753906e+05
    2.4915752932e-02    1.0178861719e+05
    2.4936262518e-02    1.0178231250e+05
    2.4956764653e-02    1.0176925000e+05
    2.4977253750e-02    1.0176203906e+05
    2.4997735396e-02    1.0174453906e+05
    2.5018205866e-02    1.0172093750e+05
    2.5038668886e-02    1.0169285156e+05
    2.5059120730e-02    1.0166652344e+05
    2.5079563260e-02    1.0163283594e+05
    2.5099996477e-02    1.0160116406e+05
    2.5120420381e-02    1.0157443750e+05
    2.5140833110e-02    1.0154335156e+05
    2.5161236525e-02    1.0150985156e+05
    2.5181630626e-02    1.0148414844e+05
    2.5202017277e-02    1.0145533594e+05
    2.5222390890e-02    1.0143244531e+05
    2.5242757052e-02    1.0140953125e+05
    2.5263112038e-02    1.0138652344e+05
    2.5283459574e-02    1.0137853906e+05
    2.5303795934e-02    1.0136416406e+05
    2.5324124843e-02    1.0134809375e+05
    2.5344440714e-02    1.0134212500e+05
    2.5364749134e-02    1.0133603906e+05
    2.5385048240e-02    1.0133346094e+05
    2.5405339897e-02    1.0132984375e+05
    2.5425618514e-02    1.0133075000e+05
    2.5445887819e-02    1.0133171094e+05
    2.5466147810e-02    1.0133286719e+05
    2.5486400351e-02    1.0133559375e+05
    2.5506639853e-02    1.0134552344e+05
    2.5526873767e-02    1.0135399219e+05
    2.5547094643e-02    1.0136535156e+05
    2.5567308068e-02    1.0137906250e+05
    2.5587510318e-02    1.0139341406e+05
    2.5607703254e-02    1.0140536719e+05
    2.5627886876e-02    1.0141622656e+05
    2.5648061186e-02    1.0143071094e+05
    2.5668226182e-02    1.0144980469e+05
    2.5688380003e-02    1.0146575000e+05
    2.5708526373e-02    1.0148269531e+05
    2.5728661567e-02    1.0149931250e+05
    2.5748789310e-02    1.0151205469e+05
    2.5768904015e-02    1.0151910156e+05
    2.5789011270e-02    1.0153139844e+05
    2.5809109211e-02    1.0153464844e+05
    2.5829195976e-02    1.0153943750e+05
    2.5849273428e-02    1.0154239844e+05
    2.5869343430e-02    1.0153628125e+05
    2.5889402255e-02    1.0152997656e+05
    2.5909451768e-02    1.0152219531e+05
    2.5929493830e-02    1.0150356250e+05
    2.5949522853e-02    1.0149335156e+05
    2.5969544426e-02    1.0147221094e+05
    2.5989556685e-02    1.0145352344e+05
    2.6009559631e-02    1.0141946094e+05
    2.6029553264e-02    1.0139096875e+05
    2.6049537584e-02    1.0135885156e+05
    2.6069512591e-02    1.0132242969e+05
    2.6089478284e-02    1.0128838281e+05
    2.6109432802e-02    1.0125253906e+05
    2.6129379869e-02    1.0121868750e+05
    2.6149315760e-02    1.0119040625e+05
    2.6169244200e-02    1.0116478125e+05
    2.6189163327e-02    1.0114535156e+05
    2.6209073141e-02    1.0113155469e+05
    2.6228975505e-02    1.0112477344e+05
    2.6248866692e-02    1.0112577344e+05
    2.6268748567e-02    1.0113346094e+05
    2.6288621128e-02    1.0114721875e+05
    2.6308484375e-02    1.0116885156e+05
    2.6328338310e-02    1.0119861719e+05
    2.6348184794e-02    1.0122597656e+05
    2.6368021965e-02    1.0125900000e+05
    2.6387847960e-02    1.0129168750e+05
    2.6407664642e-02    1.0132875000e+05
    2.6427472010e-02    1.0136740625e+05
    2.6447271928e-02    1.0140264844e+05
    2.6467062533e-02    1.0142835156e+05
    2.6486843824e-02    1.0146356250e+05
    2.6506617665e-02    1.0149210156e+05
    2.6526380330e-02    1.0152614844e+05
    2.6546133682e-02    1.0154512500e+05
    2.6565877721e-02    1.0157375000e+05
    2.6585612446e-02    1.0159435156e+05
    2.6605339721e-02    1.0161344531e+05
    2.6625057682e-02    1.0162500000e+05
    2.6644766331e-02    1.0164283594e+05
    2.6664465666e-02    1.0165190625e+05
    2.6684155688e-02    1.0166852344e+05
    2.6703836396e-02    1.0167988281e+05
    2.6723509654e-02    1.0169236719e+05
    2.6743173599e-02    1.0170883594e+05
    2.6762828231e-02    1.0172266406e+05
    2.6782475412e-02    1.0173183594e+05
    2.6802113280e-02    1.0174872656e+05
    2.6821739972e-02    1.0176560156e+05
    2.6841359213e-02    1.0177990625e+05
    2.6860967278e-02    1.0179411719e+05
    2.6880569756e-02    1.0181028125e+05
    2.6900164783e-02    1.0181565625e+05
    2.6919748634e-02    1.0182964844e+05
    2.6939325035e-02    1.0183505469e+05
    2.6958892122e-02    1.0184786719e+05
    2.6978449896e-02    1.0184971094e+05
    2.6997998357e-02    1.0185525781e+05
    2.7017539367e-02    1.0186168750e+05
    2.7037071064e-02    1.0186692969e+05
    2.7056595311e-02    1.0186658594e+05
    2.7076110244e-02    1.0186050781e+05
    2.7095617726e-02    1.0185507031e+05
    2.7115115896e-02    1.0184822656e+05
    2.7134604752e-02    1.0183802344e+05
    2.7154086158e-02    1.0183369531e+05
    2.7173558250e-02    1.0182807031e+05
    2.7193021029e-02    1.0181662500e+05
    2.7212476358e-02    1.0180627344e+05
    2.7231922373e-02    1.0179278906e+05
    2.7251357213e-02    1.0178072656e+05
    2.7270786464e-02    1.0177016406e+05
    2.7290204540e-02    1.0175944531e+05
    2.7309613302e-02    1.0175393750e+05
    2.7329014614e-02    1.0174830469e+05
    2.7348404750e-02    1.0173861719e+05
    2.7367785573e-02    1.0173103906e+05
    2.7387158945e-02    1.0172033594e+05
    2.7406521142e-02    1.0171072656e+05
    2.7425874025e-02    1.0170178125e+05
    2.7445219457e-02    1.0169502344e+05
    2.7464553714e-02    1.0168725781e+05
    2.7483878657e-02    1.0168210156e+05
    2.7503194287e-02    1.0167946094e+05
    2.7522502467e-02    1.0167582031e+05
    2.7541799471e-02    1.0166638281e+05
    2.7561087161e-02    1.0166409375e+05
    2.7580365539e-02    1.0166533594e+05
    2.7599634603e-02    1.0166002344e+05
    2.7618894354e-02    1.0165697656e+05
    2.7638144791e-02    1.0165064844e+05
    2.7657385916e-02    1.0164774219e+05
    2.7676619589e-02    1.0164393750e+05
    2.7695843950e-02    1.0164024219e+05
    2.7715058997e-02    1.0163458594e+05
    2.7734262869e-02    1.0163141406e+05
    2.7753459290e-02    1.0163225000e+05
    2.7772648260e-02    1.0163197656e+05
    2.7791827917e-02    1.0163803906e+05
    2.7810998261e-02    1.0163635156e+05
    2.7830159292e-02    1.0163471875e+05
    2.7849311009e-02    1.0163196094e+05
    2.7868455276e-02    1.0162685156e+05
    2.7887590230e-02    1.0162658594e+05
    2.7906717733e-02    1.0162431250e+05
    2.7925835922e-02    1.0163167969e+05
    2.7944946662e-02    1.0163041406e+05
    2.7964048088e-02    1.0163992969e+05
    2.7983140200e-02    1.0163732031e+05
    2.8002224863e-02    1.0164664844e+05
    2.8021300212e-02    1.0164842969e+05
    2.8040368110e-02    1.0165047656e+05
    2.8059426695e-02    1.0165183594e+05
    2.8078475967e-02    1.0166380469e+05
    2.8097519651e-02    1.0166582031e+05
    2.8116554022e-02    1.0166799219e+05
    2.8135580942e-02    1.0166808594e+05
    2.8154598549e-02    1.0168210156e+05
    2.8173606843e-02    1.0168396094e+05
    2.8192607686e-02    1.0168819531e+05
    2.8211599216e-02    1.0169585156e+05
    2.8230583295e-02    1.0169464844e+05
    2.8249559924e-02    1.0169784375e+05
    2.8268527240e-02    1.0170114844e+05
    2.8287487105e-02    1.0171139844e+05
    2.8306435794e-02    1.0171578125e+05
    2.8325378895e-02    1.0171792969e+05
    2.8344312683e-02    1.0171989844e+05
    2.8363237157e-02    1.0171497656e+05
    2.8382156044e-02    1.0172624219e+05
    2.8401065618e-02    1.0172853906e+05
    2.8419965878e-02    1.0173208594e+05
    2.8438858688e-02    1.0173807031e+05
    2.8457742184e-02    1.0174132031e+05
    2.8476616368e-02    1.0173953906e+05
    2.8495483100e-02    1.0173989844e+05
    2.8514338657e-02    1.0173539844e+05
    2.8533160686e-02    1.0173612500e+05
    2.8551930562e-02    1.0173710156e+05
    2.8570635244e-02    1.0174613281e+05
    2.8589271009e-02    1.0174878125e+05
    2.8607837856e-02    1.0175378906e+05
    2.8626350686e-02    1.0175778125e+05
    2.8644818813e-02    1.0176167969e+05
    2.8663259000e-02    1.0176300000e+05
    2.8681686148e-02    1.0175714844e+05
    2.8700113297e-02    1.0175910156e+05
    2.8718546033e-02    1.0176214844e+05
    2.8736986220e-02    1.0176535156e+05
    2.8755431995e-02    1.0176771875e+05
    2.8773877770e-02    1.0178191406e+05
    2.8792314231e-02    1.0178502344e+05
    2.8810730204e-02    1.0179053125e+05
    2.8829116374e-02    1.0179371875e+05
    2.8847465292e-02    1.0178978906e+05
    2.8865773231e-02    1.0179152344e+05
    2.8884036466e-02    1.0179308594e+05
    2.8902258724e-02    1.0179577344e+05
    2.8920443729e-02    1.0179952344e+05
    2.8938598931e-02    1.0180084375e+05
    2.8956729919e-02    1.0180086719e+05
    2.8974846005e-02    1.0180360156e+05
    2.8992949054e-02    1.0180705469e+05
    2.9011042789e-02    1.0181061719e+05
    2.9029129073e-02    1.0181552344e+05
    2.9047204182e-02    1.0181447656e+05
    2.9065268114e-02    1.0180871875e+05
    2.9083315283e-02    1.0181039844e+05
    2.9101338238e-02    1.0181066406e+05
    2.9119335115e-02    1.0181050781e+05
    2.9137304053e-02    1.0180093750e+05
    2.9155241325e-02    1.0180158594e+05
    2.9173148796e-02    1.0180565625e+05
    2.9191024601e-02    1.0181124219e+05
    2.9208874330e-02    1.0181339844e+05
    2.9226697981e-02    1.0180512500e+05
    2.9244501144e-02    1.0180436719e+05
    2.9262285680e-02    1.0180690625e+05
    2.9280053452e-02    1.0180605469e+05
    2.9297806323e-02    1.0180755469e+05
    2.9315544292e-02    1.0180578125e+05
    2.9333265498e-02    1.0180849219e+05
    2.9350971803e-02    1.0180672656e+05
    2.9368655756e-02    1.0180949219e+05
    2.9386319220e-02    1.0180747656e+05
    2.9403960332e-02    1.0180863281e+05
    2.9421577230e-02    1.0179935156e+05
    2.9439168051e-02    1.0180028906e+05
    2.9456734657e-02    1.0180972656e+05
    2.9474277049e-02    1.0181128906e+05
    2.9491795227e-02    1.0181296875e+05
    2.9509292915e-02    1.0181110156e+05
    2.9526771978e-02    1.0181253906e+05
    2.9544232413e-02    1.0181177344e+05
    2.9561674222e-02    1.0180958594e+05
    2.9579099268e-02    1.0181182031e+05
    2.9596509412e-02    1.0180625000e+05
    2.9613900930e-02    1.0181184375e+05
    2.9631273821e-02    1.0181213281e+05
    2.9648626223e-02    1.0181389844e+05
    2.9665958136e-02    1.0182041406e+05
    2.9683271423e-02    1.0182538281e+05
    2.9700560495e-02    1.0182819531e+05
    2.9717829078e-02    1.0183464844e+05
    2.9735075310e-02    1.0184185156e+05
    2.9752301052e-02    1.0184719531e+05
    2.9769508168e-02    1.0185158594e+05
    2.9786696658e-02    1.0185833594e+05
    2.9803866521e-02    1.0186787500e+05
    2.9821017757e-02    1.0187267969e+05
    2.9838152230e-02    1.0187408594e+05
    2.9855269939e-02    1.0187777344e+05
    2.9872370884e-02    1.0188166406e+05
    2.9889453202e-02    1.0189042969e+05
    2.9906518757e-02    1.0189939844e+05
    2.9923565686e-02    1.0190905469e+05
    2.9940593988e-02    1.0191167969e+05
    2.9957601801e-02    1.0191658594e+05
    2.9974590987e-02    1.0192027344e+05
    2.9991561547e-02    1.0191581250e+05
    3.0008511618e-02    1.0192149219e+05
    3.0025444925e-02    1.0192596875e+05
    3.0042361468e-02    1.0192922656e+05
    3.0059259385e-02    1.0193356250e+05
    3.0076142401e-02    1.0193891406e+05
    3.0093006790e-02    1.0194053125e+05
    3.0109854415e-02    1.0193947656e+05
    3.0126683414e-02    1.0193730469e+05
    3.0143497512e-02    1.0192764844e+05
    3.0160292983e-02    1.0192425781e+05
    3.0177071691e-02    1.0191996094e+05
    3.0193833634e-02    1.0191555469e+05
    3.0210576952e-02    1.0190816406e+05
    3.0227303505e-02    1.0190750000e+05
    3.0244011432e-02    1.0190427344e+05
    3.0260702595e-02    1.0189853906e+05
    3.0277376994e-02    1.0189435156e+05
    3.0294034630e-02    1.0188991406e+05
    3.0310675502e-02    1.0188284375e+05
    3.0327299610e-02    1.0187503906e+05
    3.0343905091e-02    1.0186603906e+05
    3.0360495672e-02    1.0186246094e+05
    3.0377071351e-02    1.0185525781e+05
    3.0393628404e-02    1.0186083594e+05
    3.0410168692e-02    1.0185508594e+05
    3.0426690355e-02    1.0185165625e+05
    3.0443195254e-02    1.0184953906e+05
    3.0459685251e-02    1.0184525781e+05
    3.0476156622e-02    1.0184208594e+05
    3.0492611229e-02    1.0183908594e+05
    3.0509050936e-02    1.0183737500e+05
    3.0525473878e-02    1.0184033594e+05
    3.0541881919e-02    1.0184271875e+05
    3.0558273196e-02    1.0184066406e+05
    3.0574647710e-02    1.0183883594e+05
    3.0591005459e-02    1.0184166406e+05
    3.0607348308e-02    1.0184515625e+05
    3.0623674393e-02    1.0184403906e+05
    3.0639985576e-02    1.0184425000e+05
    3.0656279996e-02    1.0184340625e+05
    3.0672557652e-02    1.0184266406e+05
    3.0688818544e-02    1.0184308594e+05
    3.0705062672e-02    1.0184250781e+05
    3.0721291900e-02    1.0184436719e+05
    3.0737506226e-02    1.0184414844e+05
    3.0753703788e-02    1.0184625781e+05
    3.0769886449e-02    1.0185115625e+05
    3.0786054209e-02    1.0185150000e+05
    3.0802207068e-02    1.0185537500e+05
    3.0818343163e-02    1.0185465625e+05
    3.0834466219e-02    1.0184847656e+05
    3.0850572512e-02    1.0185355469e+05
    3.0866663903e-02    1.0185918750e+05
    3.0882738531e-02    1.0186246094e+05
    3.0898798257e-02    1.0186138281e+05
    3.0914843082e-02    1.0186510156e+05
    3.0930871144e-02    1.0187346875e+05
    3.0946886167e-02    1.0187324219e+05
    3.0962884426e-02    1.0188027344e+05
    3.0978867784e-02    1.0188510156e+05
    3.0994836241e-02    1.0189133594e+05
    3.1010789797e-02    1.0189553906e+05
    3.1026728451e-02    1.0190347656e+05
    3.1042650342e-02    1.0190678125e+05
    3.1058559194e-02    1.0191008594e+05
    3.1074455008e-02    1.0191571094e+05
    3.1090334058e-02    1.0191796094e+05
    3.1106200069e-02    1.0192036719e+05
    3.1122051179e-02    1.0192416406e+05
    3.1137887388e-02    1.0193502344e+05
    3.1153710559e-02    1.0194147656e+05
    3.1169516966e-02    1.0194328906e+05
    3.1185310334e-02    1.0194263281e+05
    3.1201090664e-02    1.0194144531e+05
    3.1216854230e-02    1.0194503906e+05
    3.1232602894e-02    1.0194872656e+05
    3.1248336658e-02    1.0196178906e+05
    3.1264055520e-02    1.0196352344e+05
    3.1279761344e-02    1.0196746094e+05
    3.1295452267e-02    1.0197347656e+05
    3.1311132014e-02    1.0196665625e+05
    3.1326796860e-02    1.0196871094e+05
    3.1342446804e-02    1.0197049219e+05
    3.1358085573e-02    1.0197212500e+05
    3.1373709440e-02    1.0197486719e+05
    3.1389318407e-02    1.0197635156e+05
    3.1404916197e-02    1.0197994531e+05
    3.1420499086e-02    1.0197555469e+05
    3.1436067075e-02    1.0198332031e+05
    3.1451620162e-02    1.0198436719e+05
    3.1467158347e-02    1.0198539844e+05
    3.1482685357e-02    1.0198628125e+05
    3.1498193741e-02    1.0198711719e+05
    3.1513694674e-02    1.0198900781e+05
    3.1529176980e-02    1.0199200000e+05
    3.1544648111e-02    1.0199387500e+05
    3.1560108066e-02    1.0199703125e+05
    3.1575553119e-02    1.0199552344e+05
    3.1590986997e-02    1.0199753906e+05
    3.1606405973e-02    1.0200309375e+05
    3.1621813774e-02    1.0200403125e+05
    3.1637206674e-02    1.0200612500e+05
    3.1652588397e-02    1.0200818750e+05
    3.1667951494e-02    1.0201021094e+05
    3.1683307141e-02    1.0201214844e+05
    3.1698647887e-02    1.0201139844e+05
    3.1713977456e-02    1.0200609375e+05
    3.1729292125e-02    1.0200941406e+05
    3.1744595617e-02    1.0200089844e+05
    3.1759884208e-02    1.0200116406e+05
    3.1775161624e-02    1.0199521875e+05
    3.1790427864e-02    1.0199377344e+05
    3.1805675477e-02    1.0199314844e+05
    3.1820915639e-02    1.0199247656e+05
    3.1836140901e-02    1.0199178906e+05
    3.1851354986e-02    1.0199110156e+05
    3.1866557896e-02    1.0198792969e+05
    3.1881745905e-02    1.0198027344e+05
    3.1896922737e-02    1.0197930469e+05
    3.1912088394e-02    1.0197833594e+05
    3.1927239150e-02    1.0197968750e+05
    3.1942378730e-02    1.0197894531e+05
    3.1957507133e-02    1.0198753125e+05
    3.1972620636e-02    1.0198709375e+05
    3.1987726688e-02    1.0198664844e+05
    3.2002814114e-02    1.0198621094e+05
    3.2017890364e-02    1.0198578906e+05
    3.2032959163e-02    1.0198550000e+05
    3.2048013061e-02    1.0198547656e+05
    3.2063052058e-02    1.0199060156e+05
    3.2078083605e-02    1.0199593750e+05
    3.2093103975e-02    1.0200212500e+05
    3.2108109444e-02    1.0200953125e+05
    3.2123107463e-02    1.0201283594e+05
    3.2138090581e-02    1.0201514844e+05
    3.2153062522e-02    1.0202009375e+05
    3.2168023288e-02    1.0202942969e+05
    3.2182972878e-02    1.0202985156e+05
    3.2197911292e-02    1.0203047656e+05
    3.2212834805e-02    1.0204071094e+05
    3.2227750868e-02    1.0204771094e+05
    3.2242652029e-02    1.0205303125e+05
    3.2257542014e-02    1.0206685156e+05
    3.2272424549e-02    1.0207402344e+05
    3.2287292182e-02    1.0207678906e+05
    3.2302148640e-02    1.0208187500e+05
    3.2316997647e-02    1.0208696094e+05
    3.2331831753e-02    1.0208971094e+05
    3.2346658409e-02    1.0209574219e+05
    3.2361470163e-02    1.0210163281e+05
    3.2376270741e-02    1.0210394531e+05
    3.2391063869e-02    1.0210831250e+05
    3.2405842096e-02    1.0210660156e+05
    3.2420612872e-02    1.0210938281e+05
    3.2435368747e-02    1.0211297656e+05
    3.2450113446e-02    1.0211403906e+05
    3.2464850694e-02    1.0211242969e+05
    3.2479573041e-02    1.0211302344e+05
    3.2494287938e-02    1.0211328906e+05
    3.2508991659e-02    1.0211788281e+05
    3.2523684204e-02    1.0211303125e+05
    3.2538365573e-02    1.0211171875e+05
    3.2553035766e-02    1.0211232031e+05
    3.2567698509e-02    1.0211625781e+05
    3.2582346350e-02    1.0211546875e+05
    3.2596986741e-02    1.0211892969e+05
    3.2611619681e-02    1.0211060156e+05
    3.2626237720e-02    1.0210903906e+05
    3.2640848309e-02    1.0211178125e+05
    3.2655447721e-02    1.0211209375e+05
    3.2670035958e-02    1.0210742969e+05
    3.2684613019e-02    1.0210299219e+05
    3.2699178904e-02    1.0210286719e+05
    3.2713737339e-02    1.0210271094e+05
    3.2728284597e-02    1.0210255469e+05
    3.2742820680e-02    1.0210358594e+05
    3.2757349312e-02    1.0210456250e+05
    3.2771866769e-02    1.0210214844e+05
    3.2786373049e-02    1.0210186719e+05
    3.2800871879e-02    1.0210137500e+05
    3.2815355808e-02    1.0209590625e+05
    3.2829832286e-02    1.0209287500e+05
    3.2844301313e-02    1.0209187500e+05
    3.2858755440e-02    1.0209080469e+05
    3.2873202115e-02    1.0208746094e+05
    3.2887637615e-02    1.0208635156e+05
    3.2902065665e-02    1.0208646094e+05
    3.2916482538e-02    1.0208646094e+05
    3.2930891961e-02    1.0208400781e+05
    3.2945290208e-02    1.0208018750e+05
    3.2959677279e-02    1.0207375000e+05
    3.2974056900e-02    1.0207296875e+05
    3.2988425344e-02    1.0206650000e+05
    3.3002786338e-02    1.0206560156e+05
    3.3017136157e-02    1.0206244531e+05
    3.3031478524e-02    1.0206530469e+05
    3.3045809716e-02    1.0206677344e+05
    3.3060129732e-02    1.0206227344e+05
    3.3074442297e-02    1.0205571094e+05
    3.3088747412e-02    1.0205110156e+05
    3.3103041351e-02    1.0205102344e+05
    3.3117324114e-02    1.0204878906e+05
    3.3131599426e-02    1.0204557031e+05
    3.3145863563e-02    1.0204577344e+05
    3.3160120249e-02    1.0204852344e+05
    3.3174365759e-02    1.0204916406e+05
    3.3188603818e-02    1.0204746094e+05
    3.3202830702e-02    1.0204575781e+05
    3.3217050135e-02    1.0203946094e+05
    3.3231258392e-02    1.0203639844e+05
    3.3245459199e-02    1.0203186719e+05
    3.3259648830e-02    1.0203578906e+05
    3.3273831010e-02    1.0203522656e+05
    3.3288005739e-02    1.0203371875e+05
    3.3302169293e-02    1.0203235156e+05
    3.3316325396e-02    1.0203216406e+05
    3.3330474049e-02    1.0202860156e+05
    3.3344611526e-02    1.0202733594e+05
    3.3358741552e-02    1.0202622656e+05
    3.3372864127e-02    1.0203003906e+05
    3.3386975527e-02    1.0203158594e+05
    3.3401079476e-02    1.0203525000e+05
    3.3415172249e-02    1.0203446875e+05
    3.3429257572e-02    1.0202881250e+05
    3.3443335444e-02    1.0202561719e+05
    3.3457405865e-02    1.0202246094e+05
    3.3471468836e-02    1.0203078125e+05
    3.3485524356e-02    1.0202890625e+05
    3.3499568701e-02    1.0202707031e+05
    3.3513605595e-02    1.0202641406e+05
    3.3527631313e-02    1.0202683594e+05
    3.3541653305e-02    1.0202505469e+05
    3.3555664122e-02    1.0202197656e+05
    3.3569667488e-02    1.0202360156e+05
    3.3583663404e-02    1.0202306250e+05
    3.3597648144e-02    1.0202271875e+05
    3.3611625433e-02    1.0202366406e+05
    3.3625595272e-02    1.0202258594e+05
    3.3639557660e-02    1.0203200781e+05
    3.3653512597e-02    1.0203228906e+05
    3.3667460084e-02    1.0202811719e+05
    3.3681396395e-02    1.0202458594e+05
    3.3695328981e-02    1.0202337500e+05
    3.3709254116e-02    1.0202337500e+05
    3.3723168075e-02    1.0202577344e+05
    3.3737078309e-02    1.0203066406e+05
    3.3750977367e-02    1.0203587500e+05
    3.3764872700e-02    1.0203660156e+05
    3.3778760582e-02    1.0203739844e+05
    3.3792637289e-02    1.0203824219e+05
    3.3806510270e-02    1.0203672656e+05
    3.3820372075e-02    1.0203969531e+05
    3.3834230155e-02    1.0203915625e+05
    3.3848077059e-02    1.0203377344e+05
    3.3861916512e-02    1.0203071094e+05
    3.3875752240e-02    1.0203446875e+05
    3.3889576793e-02    1.0203703906e+05
    3.3903393894e-02    1.0204183594e+05
    3.3917203546e-02    1.0203980469e+05
    3.3931009471e-02    1.0204228125e+05
    3.3944804221e-02    1.0203774219e+05
    3.3958595246e-02    1.0203549219e+05
    3.3972378820e-02    1.0203108594e+05
    3.3986151218e-02    1.0204046875e+05
    3.3999919891e-02    1.0204312500e+05
    3.4013681114e-02    1.0203660156e+05
    3.4027434886e-02    1.0203703906e+05
    3.4041177481e-02    1.0204433594e+05
    3.4054916352e-02    1.0204267969e+05
    3.4068647772e-02    1.0203853906e+05
    3.4082375467e-02    1.0203656250e+05
    3.4096091986e-02    1.0203689844e+05
    3.4109804779e-02    1.0204286719e+05
    3.4123510122e-02    1.0203750781e+05
    3.4137208015e-02    1.0203662500e+05
    3.4150898457e-02    1.0203810156e+05
    3.4164581448e-02    1.0204075000e+05
    3.4178260714e-02    1.0203885156e+05
    3.4191932529e-02    1.0204036719e+05
    3.4205596894e-02    1.0203962500e+05
    3.4219253808e-02    1.0203866406e+05
    3.4232903272e-02    1.0203985156e+05
    3.4246545285e-02    1.0203850000e+05
    3.4260183573e-02    1.0203447656e+05
    3.4273810685e-02    1.0203377344e+05
    3.4287434071e-02    1.0202849219e+05
    3.4301050007e-02    1.0202760156e+05
    3.4314658493e-02    1.0202675781e+05
    3.4328263253e-02    1.0202837500e+05
    3.4341860563e-02    1.0202897656e+05
    3.4355450422e-02    1.0203397656e+05
    3.4369036555e-02    1.0203332031e+05
    3.4382611513e-02    1.0202552344e+05
    3.4396182746e-02    1.0202572656e+05
    3.4409742802e-02    1.0201903906e+05
    3.4423299134e-02    1.0201781250e+05
    3.4436848015e-02    1.0201764844e+05
    3.4450393170e-02    1.0201517969e+05
    3.4463927150e-02    1.0201614844e+05
    3.4477461129e-02    1.0201265625e+05
    3.4490987659e-02    1.0201377344e+05
    3.4504506737e-02    1.0201149219e+05
    3.4518022090e-02    1.0201037500e+05
    3.4531529993e-02    1.0201037500e+05
    3.4545030445e-02    1.0200700781e+05
    3.4558523446e-02    1.0200703906e+05
    3.4572008997e-02    1.0200475000e+05
    3.4585487098e-02    1.0200360156e+05
    3.4598957747e-02    1.0200241406e+05
    3.4612424672e-02    1.0200349219e+05
    3.4625884145e-02    1.0199985156e+05
    3.4639336169e-02    1.0200071875e+05
    3.4652780741e-02    1.0199697656e+05
    3.4666225314e-02    1.0199306250e+05
    3.4679658711e-02    1.0198925000e+05
    3.4693088382e-02    1.0199000781e+05
    3.4706510603e-02    1.0198983594e+05
    3.4719929099e-02    1.0199199219e+05
    3.4733340144e-02    1.0198621094e+05
    3.4746743739e-02    1.0198493750e+05
    3.4760143608e-02    1.0198691406e+05
    3.4773536026e-02    1.0198672656e+05
    3.4786924720e-02    1.0198431250e+05
    3.4800305963e-02    1.0198409375e+05
    3.4813679755e-02    1.0198153906e+05
    3.4827046096e-02    1.0198116406e+05
    3.4840408713e-02    1.0197260156e+05
    3.4853763878e-02    1.0197325781e+05
    3.4867111593e-02    1.0197171094e+05
    3.4880455583e-02    1.0196790625e+05
    3.4893795848e-02    1.0196889844e+05
    3.4907124937e-02    1.0196765625e+05
    3.4920454025e-02    1.0196891406e+05
    3.4933775663e-02    1.0196891406e+05
    3.4947093576e-02    1.0196892969e+05
    3.4960404038e-02    1.0197003906e+05
    3.4973710775e-02    1.0196661719e+05
    3.4987010062e-02    1.0196769531e+05
endcurve
