Curveplot
LS-DYNA keyword deck by LS-PrePost                          
Time
Pressure
Defined Connection
Pressure @ 107 #pts=1745
* Minval=     9.9545507812e+04 at time=         0.0150807723
* Maxval=     1.6294643750e+05 at time=         0.0088842642
    0.0000000000e+00    9.9995273438e+04
    3.3812357287e-05    9.9995273438e+04
    6.1326652940e-05    1.0000012500e+05
    8.9102875791e-05    9.9995812500e+04
    1.1682785407e-04    9.9998343750e+04
    1.4461828687e-04    1.0000116406e+05
    1.7236733402e-04    1.0000638281e+05
    2.0016246708e-04    1.0000022656e+05
    2.2795486439e-04    1.0000067969e+05
    2.5574557367e-04    1.0000102344e+05
    2.8353667585e-04    9.9998937500e+04
    3.1133697485e-04    9.9999085938e+04
    3.3912662184e-04    9.9998976562e+04
    3.6691734567e-04    1.0000344531e+05
    3.9470891352e-04    1.0000233594e+05
    4.2249175021e-04    9.9998789062e+04
    4.5027161832e-04    9.9998648438e+04
    4.7804549104e-04    1.0000096094e+05
    5.0581363030e-04    1.0000103906e+05
    5.3357944125e-04    9.9999476562e+04
    5.6134146871e-04    9.9999164062e+04
    5.8909942163e-04    9.9997914062e+04
    6.1685312539e-04    1.0000250781e+05
    6.4460188150e-04    9.9996914062e+04
    6.7234638846e-04    9.9998031250e+04
    7.0008635521e-04    9.9998351562e+04
    7.2782178177e-04    1.0000584375e+05
    7.5555208605e-04    1.0000305469e+05
    7.8327720985e-04    1.0000219531e+05
    8.1099680392e-04    9.9997414062e+04
    8.3871174138e-04    9.9999289062e+04
    8.6642213864e-04    1.0000141406e+05
    8.9412782108e-04    1.0000021875e+05
    9.2182843946e-04    9.9998976562e+04
    9.4952445943e-04    9.9993273438e+04
    9.7721535712e-04    9.9998835938e+04
    1.0049008997e-03    9.9999210938e+04
    1.0325826006e-03    1.0000121094e+05
    1.0602590628e-03    1.0001235156e+05
    1.0879321489e-03    1.0000377344e+05
    1.1155996472e-03    1.0000100000e+05
    1.1432634201e-03    9.9992289062e+04
    1.1709230021e-03    9.9992531250e+04
    1.1985785095e-03    9.9998976562e+04
    1.2262313394e-03    9.9999164062e+04
    1.2538790470e-03    1.0000221094e+05
    1.2815232622e-03    1.0000331250e+05
    1.3091630535e-03    1.0000480469e+05
    1.3368004002e-03    1.0000719531e+05
    1.3644339051e-03    1.0001428125e+05
    1.3920635683e-03    1.0002425000e+05
    1.4196902048e-03    1.0005240625e+05
    1.4473132323e-03    1.0010064844e+05
    1.4749332331e-03    1.0019258594e+05
    1.5025498578e-03    1.0032509375e+05
    1.5301633393e-03    1.0052552344e+05
    1.5577742597e-03    1.0077239844e+05
    1.5853822697e-03    1.0109035156e+05
    1.6129877185e-03    1.0146340625e+05
    1.6405890929e-03    1.0186716406e+05
    1.6681876732e-03    1.0225352344e+05
    1.6957829939e-03    1.0259887500e+05
    1.7233766848e-03    1.0287133594e+05
    1.7509678146e-03    1.0305186719e+05
    1.7785291420e-03    1.0313603125e+05
    1.8060547300e-03    1.0313685156e+05
    1.8335470231e-03    1.0305641406e+05
    1.8610082334e-03    1.0291788281e+05
    1.8884401070e-03    1.0275108594e+05
    1.9158447394e-03    1.0257410156e+05
    1.9432241097e-03    1.0241812500e+05
    1.9705800805e-03    1.0229066406e+05
    1.9979148638e-03    1.0222117969e+05
    2.0252298564e-03    1.0219541406e+05
    2.0525271539e-03    1.0222021094e+05
    2.0798076876e-03    1.0227306250e+05
    2.1070730872e-03    1.0234544531e+05
    2.1343247499e-03    1.0241083594e+05
    2.1615643054e-03    1.0248146094e+05
    2.1887931507e-03    1.0252803125e+05
    2.2160108201e-03    1.0254703906e+05
    2.2432196420e-03    1.0254237500e+05
    2.2704207804e-03    1.0251403906e+05
    2.2976147011e-03    1.0247558594e+05
    2.3248014040e-03    1.0243981250e+05
    2.3519827519e-03    1.0241999219e+05
    2.3791582789e-03    1.0239991406e+05
    2.4063293822e-03    1.0238480469e+05
    2.4334960617e-03    1.0237602344e+05
    2.4606597144e-03    1.0238727344e+05
    2.4878205732e-03    1.0240852344e+05
    2.5149781723e-03    1.0243102344e+05
    2.5421329774e-03    1.0244285156e+05
    2.5692859199e-03    1.0244927344e+05
    2.5964374654e-03    1.0244744531e+05
    2.6235871483e-03    1.0244516406e+05
    2.6507352013e-03    1.0243933594e+05
    2.6778825559e-03    1.0243387500e+05
    2.7050296776e-03    1.0242147656e+05
    2.7321761008e-03    1.0241758594e+05
    2.7593218256e-03    1.0241253125e+05
    2.7864677832e-03    1.0241803906e+05
    2.8136142064e-03    1.0242447656e+05
    2.8407603968e-03    1.0243453125e+05
    2.8679079842e-03    1.0244968750e+05
    2.8950548731e-03    1.0246350781e+05
    2.9222022276e-03    1.0248341406e+05
    2.9493502807e-03    1.0251742969e+05
    2.9764990322e-03    1.0257122656e+05
    3.0036487151e-03    1.0263777344e+05
    3.0307997949e-03    1.0271906250e+05
    3.0579508748e-03    1.0281867969e+05
    3.0851035845e-03    1.0292012500e+05
    3.1122572254e-03    1.0302371094e+05
    3.1394117977e-03    1.0311396094e+05
    3.1665677670e-03    1.0320472656e+05
    3.1937246677e-03    1.0326346094e+05
    3.2208829653e-03    1.0329947656e+05
    3.2480424270e-03    1.0330746094e+05
    3.2752046827e-03    1.0328896875e+05
    3.2952371985e-03    1.0325559375e+05
    3.3145032357e-03    1.0322543750e+05
    3.3336398192e-03    1.0319105469e+05
    3.3528339118e-03    1.0314921094e+05
    3.3720366191e-03    1.0310121875e+05
    3.3912549261e-03    1.0306017969e+05
    3.4104890656e-03    1.0301407031e+05
    3.4297339153e-03    1.0297640625e+05
    3.4486323129e-03    1.0293239844e+05
    3.4671388566e-03    1.0288458594e+05
    3.4854323603e-03    1.0283306250e+05
    3.5036695190e-03    1.0277041406e+05
    3.5219141282e-03    1.0270557031e+05
    3.5401545465e-03    1.0262830469e+05
    3.5583588760e-03    1.0255858594e+05
    3.5765271168e-03    1.0248941406e+05
    3.5946895368e-03    1.0242742969e+05
    3.6139658187e-03    1.0237608594e+05
    3.6330535077e-03    1.0232999219e+05
    3.6521453876e-03    1.0228933594e+05
    3.6699753255e-03    1.0225328125e+05
    3.6875614896e-03    1.0222639844e+05
    3.7050142419e-03    1.0220422656e+05
    3.7224807311e-03    1.0218928125e+05
    3.7400643341e-03    1.0217830469e+05
    3.7577797193e-03    1.0216974219e+05
    3.7755726371e-03    1.0215981250e+05
    3.7933769636e-03    1.0214678906e+05
    3.8111612666e-03    1.0213742969e+05
    3.8289318327e-03    1.0212935156e+05
    3.8467168342e-03    1.0212147656e+05
    3.8645383902e-03    1.0211971094e+05
    3.8824023213e-03    1.0211590625e+05
    3.9002960548e-03    1.0211178906e+05
    3.9182156324e-03    1.0209632031e+05
    3.9361710660e-03    1.0207471094e+05
    3.9541716687e-03    1.0204906250e+05
    3.9733103476e-03    1.0203003906e+05
    3.9924201556e-03    1.0201203906e+05
    4.0104058571e-03    1.0199944531e+05
    4.0284004062e-03    1.0198792969e+05
    4.0464363992e-03    1.0198211719e+05
    4.0656095371e-03    1.0197989844e+05
    4.0847789496e-03    1.0197383594e+05
    4.1039343923e-03    1.0196122656e+05
    4.1219722480e-03    1.0194889844e+05
    4.1400394402e-03    1.0194846094e+05
    4.1591953486e-03    1.0193457031e+05
    4.1784178466e-03    1.0193260156e+05
    4.1976389475e-03    1.0192183594e+05
    4.2168586515e-03    1.0191337500e+05
    4.2360713705e-03    1.0190733594e+05
    4.2552771047e-03    1.0189897656e+05
    4.2744791135e-03    1.0188927344e+05
    4.2936825193e-03    1.0187907031e+05
    4.3128933758e-03    1.0187396094e+05
    4.3321144767e-03    1.0186102344e+05
    4.3513495475e-03    1.0184222656e+05
    4.3705995195e-03    1.0182158594e+05
    4.3898657896e-03    1.0179403125e+05
    4.4091497548e-03    1.0176841406e+05
    4.4284537435e-03    1.0174413281e+05
    4.4477786869e-03    1.0170916406e+05
    4.4671236537e-03    1.0167642969e+05
    4.4864914380e-03    1.0162902344e+05
    4.5058806427e-03    1.0156589844e+05
    4.5252908021e-03    1.0149533594e+05
    4.5447219163e-03    1.0140525781e+05
    4.5641721226e-03    1.0131396875e+05
    4.5836409554e-03    1.0121288281e+05
    4.6031279489e-03    1.0110480469e+05
    4.6226321720e-03    1.0098624219e+05
    4.6421540901e-03    1.0086552344e+05
    4.6616927721e-03    1.0073765625e+05
    4.6812482178e-03    1.0061606250e+05
    4.7008208930e-03    1.0050541406e+05
    4.7204112634e-03    1.0039924219e+05
    4.7400193289e-03    1.0030690625e+05
    4.7596455552e-03    1.0023289844e+05
    4.7792894766e-03    1.0018347656e+05
    4.7989510931e-03    1.0016008594e+05
    4.8186304048e-03    1.0014542969e+05
    4.8383255489e-03    1.0015522656e+05
    4.8580355942e-03    1.0018196094e+05
    4.8777610064e-03    1.0023103906e+05
    4.8975008540e-03    1.0028503906e+05
    4.9172551371e-03    1.0034771094e+05
    4.9370229244e-03    1.0041558594e+05
    4.9568060786e-03    1.0046960156e+05
    4.9766036682e-03    1.0052236719e+05
    4.9964170903e-03    1.0057003125e+05
    5.0162458792e-03    1.0061310156e+05
    5.0360900350e-03    1.0065028906e+05
    5.0559476949e-03    1.0066941406e+05
    5.0758207217e-03    1.0067784375e+05
    5.0957072526e-03    1.0067460156e+05
    5.1156077534e-03    1.0066813281e+05
    5.1355226897e-03    1.0066050781e+05
    5.1554525271e-03    1.0065042969e+05
    5.1753963344e-03    1.0063663281e+05
    5.1953555085e-03    1.0061991406e+05
    5.2153295837e-03    1.0060353906e+05
    5.2353194915e-03    1.0059515625e+05
    5.2553247660e-03    1.0058589844e+05
    5.2753463387e-03    1.0057602344e+05
    5.2953832783e-03    1.0057471094e+05
    5.3154369816e-03    1.0058225000e+05
    5.3355065174e-03    1.0058853906e+05
    5.3555918857e-03    1.0060147656e+05
    5.3756926209e-03    1.0061514844e+05
    5.3958082572e-03    1.0063494531e+05
    5.4159392603e-03    1.0066071094e+05
    5.4360851645e-03    1.0068983594e+05
    5.4562464356e-03    1.0072009375e+05
    5.4764230736e-03    1.0074897656e+05
    5.4966160096e-03    1.0078102344e+05
    5.5168238468e-03    1.0081428906e+05
    5.5370470509e-03    1.0085383594e+05
    5.5572865531e-03    1.0089774219e+05
    5.5775423534e-03    1.0095147656e+05
    5.5978130549e-03    1.0100633594e+05
    5.6181000546e-03    1.0106921094e+05
    5.6384028867e-03    1.0113827344e+05
    5.6587206200e-03    1.0120669531e+05
    5.6790532544e-03    1.0127905469e+05
    5.6994007900e-03    1.0135982031e+05
    5.7197632268e-03    1.0143825781e+05
    5.7401410304e-03    1.0150683594e+05
    5.7605337352e-03    1.0157228906e+05
    5.7809422724e-03    1.0162828125e+05
    5.8013652451e-03    1.0167552344e+05
    5.8218040504e-03    1.0170669531e+05
    5.8422577567e-03    1.0172659375e+05
    5.8627268299e-03    1.0172834375e+05
    5.8832112700e-03    1.0172111719e+05
    5.9037101455e-03    1.0168907031e+05
    5.9242248535e-03    1.0164475000e+05
    5.9447535314e-03    1.0158618750e+05
    5.9641525149e-03    1.0150468750e+05
    5.9830932878e-03    1.0141272656e+05
    6.0020405799e-03    1.0131133594e+05
    6.0210367665e-03    1.0120049219e+05
    6.0400799848e-03    1.0108169531e+05
    6.0591096990e-03    1.0095753125e+05
    6.0781282373e-03    1.0083549219e+05
    6.0972142965e-03    1.0071003906e+05
    6.1162756756e-03    1.0058991406e+05
    6.1353649944e-03    1.0047871875e+05
    6.1544459313e-03    1.0037900000e+05
    6.1734300107e-03    1.0027877344e+05
    6.1924448237e-03    1.0020310156e+05
    6.2115197070e-03    1.0014240625e+05
    6.2306127511e-03    1.0009699219e+05
    6.2497169711e-03    1.0007253906e+05
    6.2688281760e-03    1.0005443750e+05
    6.2879407778e-03    1.0005374219e+05
    6.3070552424e-03    1.0007016406e+05
    6.3261794858e-03    1.0009321094e+05
    6.3453060575e-03    1.0014124219e+05
    6.3644465990e-03    1.0019216406e+05
    6.3835908659e-03    1.0024796875e+05
    6.4027444459e-03    1.0031368750e+05
    6.4219115302e-03    1.0037052344e+05
    6.4410855994e-03    1.0043308594e+05
    6.4602680504e-03    1.0048461719e+05
    6.4794607460e-03    1.0052847656e+05
    6.4986641519e-03    1.0056691406e+05
    6.5178787336e-03    1.0059984375e+05
    6.5371058881e-03    1.0062171094e+05
    6.5563363023e-03    1.0063366406e+05
    6.5755699761e-03    1.0063596094e+05
    6.5948092379e-03    1.0063008594e+05
    6.6140629351e-03    1.0061463281e+05
    6.6333152354e-03    1.0059747656e+05
    6.6525745206e-03    1.0058210156e+05
    6.6718445159e-03    1.0056655469e+05
    6.6911154427e-03    1.0055122656e+05
    6.7104012705e-03    1.0053521094e+05
    6.7296870984e-03    1.0052219531e+05
    6.7489854991e-03    1.0050927344e+05
    6.7682852969e-03    1.0049803906e+05
    6.7875892855e-03    1.0049371875e+05
    6.8069072440e-03    1.0049703125e+05
    6.8262196146e-03    1.0051088281e+05
    6.8455408327e-03    1.0052889844e+05
    6.8648783490e-03    1.0055125781e+05
    6.8842126057e-03    1.0056886719e+05
    6.9035501219e-03    1.0059072656e+05
    6.9228983484e-03    1.0061814844e+05
    6.9422605447e-03    1.0064555469e+05
    6.9616222754e-03    1.0068085156e+05
    6.9809844717e-03    1.0071102344e+05
    7.0003494620e-03    1.0073691406e+05
    7.0197195746e-03    1.0075897656e+05
    7.0390999317e-03    1.0078133594e+05
    7.0584909990e-03    1.0079453906e+05
    7.0778946392e-03    1.0080616406e+05
    7.0973108523e-03    1.0081734375e+05
    7.1167377755e-03    1.0082783594e+05
    7.1361698210e-03    1.0083321875e+05
    7.1556069888e-03    1.0084469531e+05
    7.1750483476e-03    1.0085074219e+05
    7.1944966912e-03    1.0085339844e+05
    7.2139529511e-03    1.0085052344e+05
    7.2334166616e-03    1.0085371094e+05
    7.2528840974e-03    1.0086322656e+05
    7.2723543271e-03    1.0086696094e+05
    7.2918278165e-03    1.0087541406e+05
    7.3113050312e-03    1.0088527344e+05
    7.3307845742e-03    1.0090581250e+05
    7.3502692394e-03    1.0091667969e+05
    7.3697618209e-03    1.0092933594e+05
    7.3892641813e-03    1.0094828906e+05
    7.4087800458e-03    1.0096255469e+05
    7.4282912537e-03    1.0098450000e+05
    7.4477996677e-03    1.0100299219e+05
    7.4673094787e-03    1.0102269531e+05
    7.4868267402e-03    1.0104708594e+05
    7.5063589029e-03    1.0106874219e+05
    7.5258887373e-03    1.0109921875e+05
    7.5454111211e-03    1.0112558594e+05
    7.5649353676e-03    1.0116421094e+05
    7.5844703242e-03    1.0120433594e+05
    7.6040057465e-03    1.0124802344e+05
    7.6235276647e-03    1.0130491406e+05
    7.6430505142e-03    1.0136553125e+05
    7.6625877991e-03    1.0143512500e+05
    7.6821087860e-03    1.0151550781e+05
    7.7016241848e-03    1.0160472656e+05
    7.7211544849e-03    1.0171088281e+05
    7.7406810597e-03    1.0182210156e+05
    7.7602043748e-03    1.0194663281e+05
    7.7797495760e-03    1.0206938281e+05
    7.7992938459e-03    1.0219552344e+05
    7.8188432381e-03    1.0231950781e+05
    7.8384252265e-03    1.0243772656e+05
    7.8580006957e-03    1.0254200781e+05
    7.8775910661e-03    1.0263193750e+05
    7.8972103074e-03    1.0270628125e+05
    7.9168286175e-03    1.0275850781e+05
    7.9364804551e-03    1.0279041406e+05
    7.9561360180e-03    1.0279972656e+05
    7.9758102074e-03    1.0278740625e+05
    7.9955114052e-03    1.0275536719e+05
    8.0152126029e-03    1.0270528125e+05
    8.0349491909e-03    1.0264043750e+05
    8.0546662211e-03    1.0256197656e+05
    8.0743944272e-03    1.0247886719e+05
    8.0941170454e-03    1.0239534375e+05
    8.1138620153e-03    1.0230781250e+05
    8.1336386502e-03    1.0222415625e+05
    8.1534720957e-03    1.0214414844e+05
    8.1733558327e-03    1.0207564844e+05
    8.1932730973e-03    1.0201472656e+05
    8.2132071257e-03    1.0196632031e+05
    8.2330890000e-03    1.0192690625e+05
    8.2529615611e-03    1.0190297656e+05
    8.2727763802e-03    1.0189583594e+05
    8.2926023751e-03    1.0189616406e+05
    8.3124246448e-03    1.0190677344e+05
    8.3322748542e-03    1.0192064844e+05
    8.3521194756e-03    1.0193792969e+05
    8.3719678223e-03    1.0195391406e+05
    8.3917891607e-03    1.0197061719e+05
    8.4116021171e-03    1.0198205469e+05
    8.4314141423e-03    1.0198610156e+05
    8.4512168542e-03    1.0198764844e+05
    8.4710381925e-03    1.0197909375e+05
    8.4908353165e-03    1.0196564844e+05
    8.5106678307e-03    1.0194266406e+05
    8.5304882377e-03    1.0192296094e+05
    8.5503393784e-03    1.0189975781e+05
    8.5699046031e-03    1.0189241406e+05
    8.5892248899e-03    1.0191585156e+05
    8.6083402857e-03    1.0199914844e+05
    8.6272666231e-03    1.0218797656e+05
    8.6460309103e-03    1.0256997656e+05
    8.6646731943e-03    1.0328952344e+05
    8.6832325906e-03    1.0456612500e+05
    8.7017398328e-03    1.0671210156e+05
    8.7202098221e-03    1.1012250781e+05
    8.7386453524e-03    1.1515566406e+05
    8.7570473552e-03    1.2197156250e+05
    8.7753897533e-03    1.3034178906e+05
    8.7936492637e-03    1.3949268750e+05
    8.8118780404e-03    1.4827790625e+05
    8.8300397620e-03    1.5552575000e+05
    8.8481390849e-03    1.6041851562e+05
    8.8662039489e-03    1.6275793750e+05
    8.8842641562e-03    1.6294643750e+05
    8.9023411274e-03    1.6163276562e+05
    8.9204348624e-03    1.5954701562e+05
    8.9385388419e-03    1.5734675000e+05
    8.9566456154e-03    1.5541095312e+05
    8.9747514576e-03    1.5389743750e+05
    8.9928600937e-03    1.5278821875e+05
    9.0109808370e-03    1.5194162500e+05
    9.0291155502e-03    1.5117648438e+05
    9.0472688898e-03    1.5030928125e+05
    9.0654399246e-03    1.4924664062e+05
    9.0836230665e-03    1.4795021875e+05
    9.1018192470e-03    1.4644582812e+05
    9.1200266033e-03    1.4479879688e+05
    9.1382460669e-03    1.4310400000e+05
    9.1564757749e-03    1.4144442188e+05
    9.1747231781e-03    1.3987756250e+05
    9.1929892078e-03    1.3844173438e+05
    9.2112747952e-03    1.3713673438e+05
    9.2295790091e-03    1.3594906250e+05
    9.2479009181e-03    1.3485131250e+05
    9.2662386596e-03    1.3381956250e+05
    9.2845931649e-03    1.3281987500e+05
    9.3029672280e-03    1.3184279688e+05
    9.3213599175e-03    1.3088214844e+05
    9.3397712335e-03    1.2994113281e+05
    9.3582011759e-03    1.2902815625e+05
    9.3766497448e-03    1.2815985156e+05
    9.3951150775e-03    1.2734678125e+05
    9.4135999680e-03    1.2659563281e+05
    9.4321016222e-03    1.2591087500e+05
    9.4506228343e-03    1.2527928125e+05
    9.4691645354e-03    1.2469989844e+05
    9.4877239317e-03    1.2415730469e+05
    9.5063010231e-03    1.2364083594e+05
    9.5248948783e-03    1.2313225781e+05
    9.5435054973e-03    1.2263346094e+05
    9.5621328801e-03    1.2214178125e+05
    9.5807760954e-03    1.2165464844e+05
    9.5994332805e-03    1.2118291406e+05
    9.6181081608e-03    1.2072805469e+05
    9.6367979422e-03    1.2029103906e+05
    9.6555035561e-03    1.1987010156e+05
    9.6742231399e-03    1.1946916406e+05
    9.6929576248e-03    1.1908883594e+05
    9.7117051482e-03    1.1872499219e+05
    9.7304685041e-03    1.1838186719e+05
    9.7492448986e-03    1.1804869531e+05
    9.7680361941e-03    1.1773825781e+05
    9.7868405282e-03    1.1744025781e+05
    9.8056588322e-03    1.1715960156e+05
    9.8244920373e-03    1.1689400781e+05
    9.8433364183e-03    1.1664371875e+05
    9.8621929064e-03    1.1641725781e+05
    9.8810633644e-03    1.1619814844e+05
    9.8999459296e-03    1.1599647656e+05
    9.9188406020e-03    1.1580796094e+05
    9.9377483130e-03    1.1562327344e+05
    9.9566690624e-03    1.1544625781e+05
    9.9756028503e-03    1.1527839844e+05
    9.9945487455e-03    1.1510894531e+05
    1.0013507679e-02    1.1493460156e+05
    1.0032479651e-02    1.1476703906e+05
    1.0051463731e-02    1.1460140625e+05
    1.0070459917e-02    1.1443372656e+05
    1.0089469142e-02    1.1428571094e+05
    1.0108492337e-02    1.1414978906e+05
    1.0127528571e-02    1.1401486719e+05
    1.0146577843e-02    1.1389596875e+05
    1.0165639222e-02    1.1378759375e+05
    1.0184712708e-02    1.1367616406e+05
    1.0203798302e-02    1.1358033594e+05
    1.0222896002e-02    1.1348161719e+05
    1.0242006741e-02    1.1339831250e+05
    1.0261129588e-02    1.1330878906e+05
    1.0280264542e-02    1.1322803906e+05
    1.0299413465e-02    1.1314689844e+05
    1.0318575427e-02    1.1306319531e+05
    1.0337748565e-02    1.1297078906e+05
    1.0356934741e-02    1.1288777344e+05
    1.0376133956e-02    1.1279613281e+05
    1.0395346209e-02    1.1270487500e+05
    1.0414571501e-02    1.1260982031e+05
    1.0433809832e-02    1.1252221094e+05
    1.0453061201e-02    1.1243174219e+05
    1.0472324677e-02    1.1233472656e+05
    1.0491601191e-02    1.1224067969e+05
    1.0510892607e-02    1.1214896875e+05
    1.0530196130e-02    1.1205630469e+05
    1.0549513623e-02    1.1196000000e+05
    1.0568842292e-02    1.1186421875e+05
    1.0588183999e-02    1.1176882031e+05
    1.0607538745e-02    1.1167255469e+05
    1.0626907460e-02    1.1157046094e+05
    1.0646289214e-02    1.1146380469e+05
    1.0665684007e-02    1.1136339844e+05
    1.0685092770e-02    1.1126552344e+05
    1.0704516433e-02    1.1117325000e+05
    1.0723951273e-02    1.1108637500e+05
    1.0743400082e-02    1.1101152344e+05
    1.0762862861e-02    1.1095285156e+05
    1.0782338679e-02    1.1089402344e+05
    1.0801829398e-02    1.1085085156e+05
    1.0821334086e-02    1.1081934375e+05
    1.0840852745e-02    1.1079467969e+05
    1.0860386305e-02    1.1078850781e+05
    1.0879932903e-02    1.1078189844e+05
    1.0899493471e-02    1.1077875000e+05
    1.0919069871e-02    1.1077509375e+05
    1.0938662104e-02    1.1076158594e+05
    1.0958270170e-02    1.1074141406e+05
    1.0977892205e-02    1.1070550781e+05
    1.0997531936e-02    1.1066275000e+05
    1.1017187499e-02    1.1060908594e+05
    1.1036860757e-02    1.1054443750e+05
    1.1056551710e-02    1.1047681250e+05
    1.1076259427e-02    1.1039631250e+05
    1.1095987633e-02    1.1031668750e+05
    1.1115733534e-02    1.1023766406e+05
    1.1135498993e-02    1.1016131250e+05
    1.1155283079e-02    1.1008477344e+05
    1.1175086722e-02    1.1001600781e+05
    1.1194912717e-02    1.0995818750e+05
    1.1214758269e-02    1.0990733594e+05
    1.1234625243e-02    1.0985868750e+05
    1.1254511774e-02    1.0982453906e+05
    1.1274418794e-02    1.0979724219e+05
    1.1294347234e-02    1.0977553125e+05
    1.1314296164e-02    1.0975427344e+05
    1.1334266514e-02    1.0972769531e+05
    1.1354257353e-02    1.0969706250e+05
    1.1374268681e-02    1.0966280469e+05
    1.1394302361e-02    1.0962310156e+05
    1.1414355598e-02    1.0957332031e+05
    1.1434430256e-02    1.0951813281e+05
    1.1454525404e-02    1.0945981250e+05
    1.1474640109e-02    1.0939140625e+05
    1.1494777165e-02    1.0931671875e+05
    1.1514934711e-02    1.0924280469e+05
    1.1535113677e-02    1.0917585156e+05
    1.1555313133e-02    1.0911199219e+05
    1.1575534008e-02    1.0905111719e+05
    1.1595774442e-02    1.0899384375e+05
    1.1616035365e-02    1.0894137500e+05
    1.1636316776e-02    1.0889060156e+05
    1.1656619608e-02    1.0884278125e+05
    1.1676942930e-02    1.0879221875e+05
    1.1697287671e-02    1.0874738281e+05
    1.1717652902e-02    1.0869987500e+05
    1.1738038622e-02    1.0865258594e+05
    1.1758443899e-02    1.0859858594e+05
    1.1778870597e-02    1.0854996094e+05
    1.1799318716e-02    1.0850002344e+05
    1.1819788255e-02    1.0844493750e+05
    1.1840280145e-02    1.0839143750e+05
    1.1860790662e-02    1.0833475000e+05
    1.1881321669e-02    1.0827506250e+05
    1.1901874095e-02    1.0821664844e+05
    1.1922447011e-02    1.0816371875e+05
    1.1943042278e-02    1.0811088281e+05
    1.1963658035e-02    1.0805621875e+05
    1.1984295212e-02    1.0800696094e+05
    1.2004952878e-02    1.0795616406e+05
    1.2025631964e-02    1.0790586719e+05
    1.2046331540e-02    1.0785575000e+05
    1.2067052536e-02    1.0780614844e+05
    1.2087795883e-02    1.0775558594e+05
    1.2108558789e-02    1.0769789844e+05
    1.2129344046e-02    1.0763699219e+05
    1.2150149792e-02    1.0756952344e+05
    1.2170976959e-02    1.0749666406e+05
    1.2191825546e-02    1.0742222656e+05
    1.2212695554e-02    1.0735214844e+05
    1.2233586982e-02    1.0727516406e+05
    1.2254500762e-02    1.0721222656e+05
    1.2275436893e-02    1.0714409375e+05
    1.2296394445e-02    1.0709614844e+05
    1.2317374349e-02    1.0703847656e+05
    1.2338375673e-02    1.0699411719e+05
    1.2359398417e-02    1.0695116406e+05
    1.2380442582e-02    1.0690840625e+05
    1.2401508167e-02    1.0686872656e+05
    1.2422595173e-02    1.0683569531e+05
    1.2443703599e-02    1.0679244531e+05
    1.2464834377e-02    1.0675922656e+05
    1.2485986575e-02    1.0672739844e+05
    1.2507158332e-02    1.0669078906e+05
    1.2528351508e-02    1.0665058594e+05
    1.2549565174e-02    1.0659960156e+05
    1.2570801191e-02    1.0655243750e+05
    1.2592058629e-02    1.0649553906e+05
    1.2613337487e-02    1.0644571875e+05
    1.2634636834e-02    1.0639188281e+05
    1.2655957602e-02    1.0633256250e+05
    1.2677297927e-02    1.0627450781e+05
    1.2698660605e-02    1.0621541406e+05
    1.2720043771e-02    1.0614777344e+05
    1.2741449289e-02    1.0608449219e+05
    1.2762876227e-02    1.0602708594e+05
    1.2784325518e-02    1.0596536719e+05
    1.2805794366e-02    1.0590447656e+05
    1.2827285565e-02    1.0584337500e+05
    1.2848797254e-02    1.0578277344e+05
    1.2870330364e-02    1.0572666406e+05
    1.2891885825e-02    1.0565291406e+05
    1.2913462706e-02    1.0558628125e+05
    1.2935061008e-02    1.0550952344e+05
    1.2956679799e-02    1.0542766406e+05
    1.2978320010e-02    1.0534041406e+05
    1.2999981642e-02    1.0524200781e+05
    1.3021663763e-02    1.0514059375e+05
    1.3043368235e-02    1.0504961719e+05
    1.3065092266e-02    1.0494722656e+05
    1.3086837716e-02    1.0485394531e+05
    1.3108605519e-02    1.0477157031e+05
    1.3130392879e-02    1.0469192969e+05
    1.3152201660e-02    1.0462727344e+05
    1.3174032792e-02    1.0457453906e+05
    1.3195885345e-02    1.0452977344e+05
    1.3217759319e-02    1.0449575000e+05
    1.3239653781e-02    1.0447325000e+05
    1.3261569664e-02    1.0445646875e+05
    1.3283506967e-02    1.0443913281e+05
    1.3305463828e-02    1.0441175781e+05
    1.3327440247e-02    1.0438371875e+05
    1.3349435292e-02    1.0435300000e+05
    1.3371448033e-02    1.0431897656e+05
    1.3393475674e-02    1.0427389844e+05
    1.3415516354e-02    1.0422856250e+05
    1.3437564485e-02    1.0417602344e+05
    1.3459613547e-02    1.0412413281e+05
    1.3481658883e-02    1.0407092969e+05
    1.3503690250e-02    1.0403133594e+05
    1.3525702059e-02    1.0400021875e+05
    1.3547683135e-02    1.0397125000e+05
    1.3569628820e-02    1.0395272656e+05
    1.3591531664e-02    1.0393210156e+05
    1.3613392599e-02    1.0391216406e+05
    1.3635210693e-02    1.0389271875e+05
    1.3656994328e-02    1.0387371875e+05
    1.3678749092e-02    1.0385275000e+05
    1.3700488023e-02    1.0383335156e+05
    1.3722228818e-02    1.0382128906e+05
    1.3743981719e-02    1.0380446875e+05
    1.3765762560e-02    1.0378494531e+05
    1.3787578791e-02    1.0376228906e+05
    1.3809437864e-02    1.0374208594e+05
    1.3831341639e-02    1.0371716406e+05
    1.3853288256e-02    1.0369416406e+05
    1.3875273056e-02    1.0366866406e+05
    1.3897285797e-02    1.0365159375e+05
    1.3919321820e-02    1.0362769531e+05
    1.3941374607e-02    1.0361500781e+05
    1.3963440433e-02    1.0359952344e+05
    1.3985517435e-02    1.0357610156e+05
    1.4007603750e-02    1.0355656250e+05
    1.4029704034e-02    1.0354141406e+05
    1.4051820152e-02    1.0354650000e+05
    1.4073957689e-02    1.0358760156e+05
    1.4096121304e-02    1.0367260156e+05
    1.4118315652e-02    1.0381208594e+05
    1.4140545391e-02    1.0403127344e+05
    1.4162814245e-02    1.0432872656e+05
    1.4185124077e-02    1.0473622656e+05
    1.4207473956e-02    1.0525339844e+05
    1.4229862019e-02    1.0589427344e+05
    1.4252286404e-02    1.0664950781e+05
    1.4274741523e-02    1.0750228125e+05
    1.4297228307e-02    1.0841059375e+05
    1.4319745824e-02    1.0931810156e+05
    1.4342290349e-02    1.1016247656e+05
    1.4364863746e-02    1.1088563281e+05
    1.4387467876e-02    1.1142021094e+05
    1.4410103671e-02    1.1173881250e+05
    1.4432771131e-02    1.1181710156e+05
    1.4455472119e-02    1.1166603906e+05
    1.4478209428e-02    1.1131049219e+05
    1.4500979334e-02    1.1078378906e+05
    1.4523783699e-02    1.1012710156e+05
    1.4546621591e-02    1.0938900781e+05
    1.4569494873e-02    1.0863613281e+05
    1.4592399821e-02    1.0790897656e+05
    1.4615339227e-02    1.0725146094e+05
    1.4638305642e-02    1.0668664844e+05
    1.4661304653e-02    1.0622643750e+05
    1.4684336260e-02    1.0585353125e+05
    1.4707398601e-02    1.0553541406e+05
    1.4730494469e-02    1.0524035156e+05
    1.4753622934e-02    1.0492621094e+05
    1.4776783995e-02    1.0456697656e+05
    1.4799979515e-02    1.0414896094e+05
    1.4823205769e-02    1.0366839844e+05
    1.4846466482e-02    1.0312503125e+05
    1.4869757928e-02    1.0255571094e+05
    1.4893081971e-02    1.0197831250e+05
    1.4916437678e-02    1.0142331250e+05
    1.4939822257e-02    1.0090890625e+05
    1.4963239431e-02    1.0046197656e+05
    1.4986685477e-02    1.0009491406e+05
    1.5010161325e-02    9.9820281250e+04
    1.5033668838e-02    9.9641210938e+04
    1.5057205223e-02    9.9552539062e+04
    1.5080772340e-02    9.9545507812e+04
    1.5104367398e-02    9.9601351562e+04
    1.5127992257e-02    9.9698710938e+04
    1.5151646920e-02    9.9830367188e+04
    1.5175330453e-02    9.9977500000e+04
    1.5199041925e-02    1.0012833594e+05
    1.5222782269e-02    1.0026021875e+05
    1.5246548690e-02    1.0036696094e+05
    1.5270343982e-02    1.0044446094e+05
    1.5294168144e-02    1.0049652344e+05
    1.5318016522e-02    1.0052214844e+05
    1.5341891907e-02    1.0053122656e+05
    1.5365792438e-02    1.0053324219e+05
    1.5389721841e-02    1.0053975000e+05
    1.5413676389e-02    1.0054728906e+05
    1.5437657945e-02    1.0056932031e+05
    1.5461664647e-02    1.0060252344e+05
    1.5485695563e-02    1.0065146875e+05
    1.5509752557e-02    1.0071471094e+05
    1.5533835627e-02    1.0078752344e+05
    1.5557944775e-02    1.0086853906e+05
    1.5582079068e-02    1.0095968750e+05
    1.5606240369e-02    1.0104837500e+05
    1.5630424023e-02    1.0114108594e+05
    1.5654634684e-02    1.0122727344e+05
    1.5678871423e-02    1.0130535156e+05
    1.5703132376e-02    1.0137422656e+05
    1.5727419406e-02    1.0143444531e+05
    1.5751728788e-02    1.0148060156e+05
    1.5776060522e-02    1.0152564844e+05
    1.5800418332e-02    1.0156402344e+05
    1.5824800357e-02    1.0160309375e+05
    1.5849204734e-02    1.0164222656e+05
    1.5873633325e-02    1.0168332031e+05
    1.5898084268e-02    1.0172412500e+05
    1.5922557563e-02    1.0177622656e+05
    1.5947058797e-02    1.0182921094e+05
    1.5971582383e-02    1.0187240625e+05
    1.5996130183e-02    1.0190372656e+05
    1.6020702198e-02    1.0193028906e+05
    1.6045298427e-02    1.0194172656e+05
    1.6069920734e-02    1.0194859375e+05
    1.6094569117e-02    1.0194672656e+05
    1.6119243577e-02    1.0194411719e+05
    1.6143942252e-02    1.0193314844e+05
    1.6168667004e-02    1.0193086719e+05
    1.6193419695e-02    1.0193017969e+05
    1.6218200326e-02    1.0193428906e+05
    1.6243007034e-02    1.0195091406e+05
    1.6267839819e-02    1.0196317969e+05
    1.6292702407e-02    1.0197392969e+05
    1.6317596659e-02    1.0198628906e+05
    1.6342513263e-02    1.0199246875e+05
    1.6367461532e-02    1.0199089844e+05
    1.6392435879e-02    1.0198882031e+05
    1.6417443752e-02    1.0198432031e+05
    1.6442479566e-02    1.0196744531e+05
    1.6467543319e-02    1.0194521875e+05
    1.6492636874e-02    1.0191053906e+05
    1.6517756507e-02    1.0187285156e+05
    1.6542907804e-02    1.0183364844e+05
    1.6568088904e-02    1.0180111719e+05
    1.6593271866e-02    1.0176307031e+05
    1.6618426889e-02    1.0172072656e+05
    1.6643559560e-02    1.0167437500e+05
    1.6668669879e-02    1.0162977344e+05
    1.6693757847e-02    1.0158365625e+05
    1.6718825325e-02    1.0154503906e+05
    1.6743874177e-02    1.0150327344e+05
    1.6768900678e-02    1.0146439844e+05
    1.6793908551e-02    1.0142266406e+05
    1.6818899661e-02    1.0138062500e+05
    1.6843874007e-02    1.0134028906e+05
    1.6868829727e-02    1.0129562500e+05
    1.6893770546e-02    1.0125236719e+05
    1.6918692738e-02    1.0120030469e+05
    1.6943598166e-02    1.0115508594e+05
    1.6968490556e-02    1.0110892969e+05
    1.6993366182e-02    1.0107177344e+05
    1.7018226907e-02    1.0103765625e+05
    1.7043072730e-02    1.0101150781e+05
    1.7067901790e-02    1.0098137500e+05
    1.7092714086e-02    1.0096269531e+05
    1.7117511481e-02    1.0095103125e+05
    1.7142292112e-02    1.0095534375e+05
    1.7167057842e-02    1.0095890625e+05
    1.7191808671e-02    1.0096658594e+05
    1.7216544598e-02    1.0097888281e+05
    1.7241263762e-02    1.0098766406e+05
    1.7265968025e-02    1.0099709375e+05
    1.7290659249e-02    1.0100147656e+05
    1.7315333709e-02    1.0099658594e+05
    1.7339993268e-02    1.0099619531e+05
    1.7364639789e-02    1.0098466406e+05
    1.7389267683e-02    1.0097503906e+05
    1.7413880676e-02    1.0095480469e+05
    1.7438478768e-02    1.0093228906e+05
    1.7463061959e-02    1.0089732031e+05
    1.7487626523e-02    1.0085775000e+05
    1.7512176186e-02    1.0081577344e+05
    1.7536709085e-02    1.0077216406e+05
    1.7561223358e-02    1.0072137500e+05
    1.7585720867e-02    1.0066847656e+05
    1.7610201612e-02    1.0062353906e+05
    1.7634663731e-02    1.0057466406e+05
    1.7659107223e-02    1.0052863281e+05
    1.7683532089e-02    1.0048508594e+05
    1.7707940191e-02    1.0045413281e+05
    1.7732329667e-02    1.0042960156e+05
    1.7756698653e-02    1.0041099219e+05
    1.7781050876e-02    1.0040007031e+05
    1.7805384472e-02    1.0038760156e+05
    1.7829699442e-02    1.0038222656e+05
    1.7853999510e-02    1.0037878906e+05
    1.7878280953e-02    1.0037471094e+05
    1.7902545631e-02    1.0036415625e+05
    1.7926793545e-02    1.0035828125e+05
    1.7951028422e-02    1.0034402344e+05
    1.7975246534e-02    1.0033377344e+05
    1.7999447882e-02    1.0031096094e+05
    1.8023636192e-02    1.0028708594e+05
    1.8047811463e-02    1.0025956250e+05
    1.8071975559e-02    1.0023122656e+05
    1.8096126616e-02    1.0020788281e+05
    1.8120266497e-02    1.0018691406e+05
    1.8144397065e-02    1.0017067969e+05
    1.8168520182e-02    1.0014844531e+05
    1.8192630261e-02    1.0013839844e+05
    1.8216732889e-02    1.0013214844e+05
    1.8240824342e-02    1.0013553906e+05
    1.8264908344e-02    1.0014853125e+05
    1.8288983032e-02    1.0016950000e+05
    1.8313048407e-02    1.0019344531e+05
    1.8337102607e-02    1.0022016406e+05
    1.8361147493e-02    1.0025635156e+05
    1.8385183066e-02    1.0029050000e+05
    1.8409207463e-02    1.0033358594e+05
    1.8433224410e-02    1.0037157031e+05
    1.8457230181e-02    1.0040263281e+05
    1.8481226638e-02    1.0043241406e+05
    1.8505210057e-02    1.0045287500e+05
    1.8529184163e-02    1.0047125781e+05
    1.8553148955e-02    1.0048641406e+05
    1.8577100709e-02    1.0050008594e+05
    1.8601041287e-02    1.0050622656e+05
    1.8624972552e-02    1.0050591406e+05
    1.8648892641e-02    1.0049584375e+05
    1.8672801554e-02    1.0048042969e+05
    1.8696699291e-02    1.0046371875e+05
    1.8720587716e-02    1.0044291406e+05
    1.8744463101e-02    1.0042118750e+05
    1.8768329173e-02    1.0040003125e+05
    1.8792184070e-02    1.0036678906e+05
    1.8816027790e-02    1.0032349219e+05
    1.8839860335e-02    1.0028631250e+05
    1.8863683566e-02    1.0025347656e+05
    1.8887493759e-02    1.0021528125e+05
    1.8911294639e-02    1.0018793750e+05
    1.8935086206e-02    1.0015005469e+05
    1.8958866596e-02    1.0012112500e+05
    1.8982635811e-02    1.0009432031e+05
    1.9006397575e-02    1.0007569531e+05
    1.9030146301e-02    1.0007222656e+05
    1.9053885713e-02    1.0007281250e+05
    1.9077615812e-02    1.0008321875e+05
    1.9101334736e-02    1.0010238281e+05
    1.9125042483e-02    1.0013553906e+05
    1.9148740917e-02    1.0017646094e+05
    1.9172428176e-02    1.0023114844e+05
    1.9196104258e-02    1.0029297656e+05
    1.9219771028e-02    1.0035743750e+05
    1.9243424758e-02    1.0042471875e+05
    1.9267069176e-02    1.0050392969e+05
    1.9290700555e-02    1.0057752344e+05
    1.9314322621e-02    1.0065536719e+05
    1.9337931648e-02    1.0074150000e+05
    1.9361529499e-02    1.0082615625e+05
    1.9385114312e-02    1.0090959375e+05
    1.9408687949e-02    1.0100287500e+05
    1.9432250410e-02    1.0109078906e+05
    1.9455801696e-02    1.0118514844e+05
    1.9479339942e-02    1.0126953906e+05
    1.9502865151e-02    1.0135950000e+05
    1.9526379183e-02    1.0145114844e+05
    1.9549878314e-02    1.0153561719e+05
    1.9573366269e-02    1.0162202344e+05
    1.9596841186e-02    1.0170230469e+05
    1.9620303065e-02    1.0177932031e+05
    1.9643751904e-02    1.0185116406e+05
    1.9667187706e-02    1.0192355469e+05
    1.9690606743e-02    1.0199602344e+05
    1.9714014605e-02    1.0206094531e+05
    1.9737409428e-02    1.0212078125e+05
    1.9760791212e-02    1.0217821094e+05
    1.9784159958e-02    1.0223414844e+05
    1.9807513803e-02    1.0229121094e+05
    1.9830854610e-02    1.0236299219e+05
    1.9854182377e-02    1.0243441406e+05
    1.9877497107e-02    1.0251635156e+05
    1.9900798798e-02    1.0259108594e+05
    1.9924087450e-02    1.0267566406e+05
    1.9947361201e-02    1.0276903906e+05
    1.9970623776e-02    1.0285756250e+05
    1.9993871450e-02    1.0294846094e+05
    2.0017107949e-02    1.0303800781e+05
    2.0040329546e-02    1.0311971094e+05
    2.0063538104e-02    1.0319315625e+05
    2.0086731762e-02    1.0325059375e+05
    2.0109914243e-02    1.0328540625e+05
    2.0133081824e-02    1.0330042969e+05
    2.0156236365e-02    1.0328397656e+05
    2.0179376006e-02    1.0324736719e+05
    2.0202504471e-02    1.0318322656e+05
    2.0225618035e-02    1.0309072656e+05
    2.0248720422e-02    1.0297246094e+05
    2.0271807909e-02    1.0282030469e+05
    2.0294882357e-02    1.0264058594e+05
    2.0317947492e-02    1.0243133594e+05
    2.0340997726e-02    1.0220456250e+05
    2.0364036784e-02    1.0197759375e+05
    2.0387060940e-02    1.0174560156e+05
    2.0410073921e-02    1.0152034375e+05
    2.0433073863e-02    1.0130806250e+05
    2.0456060767e-02    1.0111608594e+05
    2.0479036495e-02    1.0095483594e+05
    2.0501999184e-02    1.0082357031e+05
    2.0524948835e-02    1.0072975781e+05
    2.0547885448e-02    1.0066736719e+05
    2.0570809022e-02    1.0063281250e+05
    2.0593719557e-02    1.0061571094e+05
    2.0616617054e-02    1.0061702344e+05
    2.0639499649e-02    1.0063121094e+05
    2.0662369207e-02    1.0065589844e+05
    2.0685223863e-02    1.0069084375e+05
    2.0708063617e-02    1.0073374219e+05
    2.0730890334e-02    1.0077432031e+05
    2.0753700286e-02    1.0081708594e+05
    2.0776495337e-02    1.0085191406e+05
    2.0799275488e-02    1.0087922656e+05
    2.0822042599e-02    1.0090250000e+05
    2.0844791085e-02    1.0092075781e+05
    2.0867524669e-02    1.0093662500e+05
    2.0890241489e-02    1.0094509375e+05
    2.0912945271e-02    1.0095002344e+05
    2.0935632288e-02    1.0095232031e+05
    2.0958306268e-02    1.0095405469e+05
    2.0980965346e-02    1.0095181250e+05
    2.1003607661e-02    1.0095510156e+05
    2.1026238799e-02    1.0096688281e+05
    2.1048855036e-02    1.0097828906e+05
    2.1071458235e-02    1.0099186719e+05
    2.1094048396e-02    1.0101552344e+05
    2.1116625518e-02    1.0104489844e+05
    2.1139191464e-02    1.0108077344e+05
    2.1161744371e-02    1.0112806250e+05
    2.1184286103e-02    1.0118164844e+05
    2.1206818521e-02    1.0123906250e+05
    2.1229337901e-02    1.0130371875e+05
    2.1251846105e-02    1.0136650781e+05
    2.1274344996e-02    1.0143977344e+05
    2.1296832711e-02    1.0151274219e+05
    2.1319312975e-02    1.0159135156e+05
    2.1341778338e-02    1.0166465625e+05
    2.1364232525e-02    1.0174000000e+05
    2.1386675537e-02    1.0182141406e+05
    2.1409107372e-02    1.0189321094e+05
    2.1431528032e-02    1.0196510156e+05
    2.1453931928e-02    1.0204012500e+05
    2.1476324648e-02    1.0210474219e+05
    2.1498700604e-02    1.0216660156e+05
    2.1521063522e-02    1.0222272656e+05
    2.1543409675e-02    1.0227264844e+05
    2.1565740928e-02    1.0232057031e+05
    2.1588053554e-02    1.0236396094e+05
    2.1610351279e-02    1.0239769531e+05
    2.1632634103e-02    1.0241869531e+05
    2.1654898301e-02    1.0244121875e+05
    2.1677147597e-02    1.0244781250e+05
    2.1699378267e-02    1.0244989844e+05
    2.1721594036e-02    1.0244752344e+05
    2.1743793041e-02    1.0244321094e+05
    2.1765975282e-02    1.0243252344e+05
    2.1788140759e-02    1.0242002344e+05
    2.1810289472e-02    1.0240531250e+05
    2.1832419559e-02    1.0238575781e+05
    2.1854531020e-02    1.0235759375e+05
    2.1876627579e-02    1.0232810156e+05
    2.1898705512e-02    1.0229705469e+05
    2.1920768544e-02    1.0226496094e+05
    2.1942811087e-02    1.0223353906e+05
    2.1964838728e-02    1.0219228125e+05
    2.1986849606e-02    1.0215153906e+05
    2.2008845583e-02    1.0210878125e+05
    2.2030822933e-02    1.0206503125e+05
    2.2052785382e-02    1.0201153125e+05
    2.2074732929e-02    1.0196585156e+05
    2.2096665576e-02    1.0191803125e+05
    2.2118583322e-02    1.0187162500e+05
    2.2140489891e-02    1.0182822656e+05
    2.2162377834e-02    1.0179060156e+05
    2.2184254602e-02    1.0175558594e+05
    2.2206118330e-02    1.0172264844e+05
    2.2227969021e-02    1.0169482031e+05
    2.2249806672e-02    1.0167453125e+05
    2.2271629423e-02    1.0166149219e+05
    2.2293440998e-02    1.0165371094e+05
    2.2315241396e-02    1.0164943750e+05
    2.2337028757e-02    1.0165915625e+05
    2.2358803079e-02    1.0167002344e+05
    2.2380566224e-02    1.0167778125e+05
    2.2402318195e-02    1.0168878906e+05
    2.2424057126e-02    1.0170430469e+05
    2.2445784882e-02    1.0172315625e+05
    2.2467501462e-02    1.0174141406e+05
    2.2489206865e-02    1.0175360156e+05
    2.2510899231e-02    1.0176714844e+05
    2.2532582283e-02    1.0178253906e+05
    2.2554252297e-02    1.0178644531e+05
    2.2575911134e-02    1.0178980469e+05
    2.2597560659e-02    1.0179041406e+05
    2.2619199008e-02    1.0178471094e+05
    2.2640828043e-02    1.0177531250e+05
    2.2662445903e-02    1.0177224219e+05
    2.2684050724e-02    1.0176616406e+05
    2.2705646232e-02    1.0176056250e+05
    2.2727232426e-02    1.0174883594e+05
    2.2748809308e-02    1.0172807031e+05
    2.2770375013e-02    1.0171624219e+05
    2.2791929543e-02    1.0169543750e+05
    2.2813472897e-02    1.0168406250e+05
    2.2835006937e-02    1.0166902344e+05
    2.2856531665e-02    1.0165913281e+05
    2.2878047079e-02    1.0165012500e+05
    2.2899549454e-02    1.0163874219e+05
    2.2921044379e-02    1.0162725781e+05
    2.2942528129e-02    1.0161677344e+05
    2.2964000702e-02    1.0160600000e+05
    2.2985465825e-02    1.0159614844e+05
    2.3006917909e-02    1.0158740625e+05
    2.3028360680e-02    1.0158360156e+05
    2.3049792275e-02    1.0157506250e+05
    2.3071214557e-02    1.0156903906e+05
    2.3092625663e-02    1.0156480469e+05
    2.3114029318e-02    1.0156047656e+05
    2.3135419935e-02    1.0155137500e+05
    2.3156799376e-02    1.0154243750e+05
    2.3178169504e-02    1.0153737500e+05
    2.3199530318e-02    1.0153891406e+05
    2.3220879957e-02    1.0154368750e+05
    2.3242218420e-02    1.0154724219e+05
    2.3263547570e-02    1.0154672656e+05
    2.3284865543e-02    1.0154469531e+05
    2.3306174204e-02    1.0155350000e+05
    2.3327469826e-02    1.0155511719e+05
    2.3348756135e-02    1.0156439844e+05
    2.3370031267e-02    1.0157057031e+05
    2.3391297087e-02    1.0157278906e+05
    2.3412553594e-02    1.0157646094e+05
    2.3433798924e-02    1.0158294531e+05
    2.3455033079e-02    1.0158596094e+05
    2.3476256058e-02    1.0158203906e+05
    2.3497469723e-02    1.0159006250e+05
    2.3518672213e-02    1.0159471094e+05
    2.3539865389e-02    1.0159724219e+05
    2.3561049253e-02    1.0159872656e+05
    2.3582221940e-02    1.0159110156e+05
    2.3603385314e-02    1.0159714844e+05
    2.3624535650e-02    1.0160396094e+05
    2.3645676672e-02    1.0160613281e+05
    2.3666808382e-02    1.0160574219e+05
    2.3687927052e-02    1.0160725781e+05
    2.3709038273e-02    1.0159999219e+05
    2.3730138317e-02    1.0159578906e+05
    2.3751227185e-02    1.0159322656e+05
    2.3772306740e-02    1.0158525000e+05
    2.3793375120e-02    1.0157721875e+05
    2.3814432323e-02    1.0157437500e+05
    2.3835480213e-02    1.0156507031e+05
    2.3856516927e-02    1.0155608594e+05
    2.3877544329e-02    1.0153896094e+05
    2.3898560554e-02    1.0152433594e+05
    2.3919565603e-02    1.0151308594e+05
    2.3940561339e-02    1.0149791406e+05
    2.3961545900e-02    1.0148641406e+05
    2.3982519284e-02    1.0147360156e+05
    2.4003483355e-02    1.0145835156e+05
    2.4024436250e-02    1.0143775781e+05
    2.4045377970e-02    1.0141863281e+05
    2.4066310376e-02    1.0139772656e+05
    2.4087233469e-02    1.0137972656e+05
    2.4108145386e-02    1.0137389844e+05
    2.4129044265e-02    1.0136396875e+05
    2.4149935693e-02    1.0136239844e+05
    2.4170814082e-02    1.0135564844e+05
    2.4191683158e-02    1.0133724219e+05
    2.4212542921e-02    1.0132653906e+05
    2.4233391508e-02    1.0131455469e+05
    2.4254228920e-02    1.0131331250e+05
    2.4275057018e-02    1.0131071875e+05
    2.4295873940e-02    1.0131337500e+05
    2.4316681549e-02    1.0132317969e+05
    2.4337477982e-02    1.0133496875e+05
    2.4358265102e-02    1.0134234375e+05
    2.4379042909e-02    1.0135108594e+05
    2.4399809539e-02    1.0136707031e+05
    2.4420566857e-02    1.0138653906e+05
    2.4441312999e-02    1.0140877344e+05
    2.4462047964e-02    1.0143250000e+05
    2.4482775480e-02    1.0146034375e+05
    2.4503491819e-02    1.0149162500e+05
    2.4524198845e-02    1.0152507031e+05
    2.4544894695e-02    1.0155219531e+05
    2.4565581232e-02    1.0158211719e+05
    2.4586258456e-02    1.0161337500e+05
    2.4606924504e-02    1.0164119531e+05
    2.4627581239e-02    1.0167224219e+05
    2.4648228660e-02    1.0169363281e+05
    2.4668866768e-02    1.0172238281e+05
    2.4689495564e-02    1.0174109375e+05
    2.4710113183e-02    1.0176178906e+05
    2.4730721489e-02    1.0177863281e+05
    2.4751318619e-02    1.0179261719e+05
    2.4771906435e-02    1.0180046875e+05
    2.4792486802e-02    1.0180553906e+05
    2.4813055992e-02    1.0179977344e+05
    2.4833614007e-02    1.0179583594e+05
    2.4854162708e-02    1.0179774219e+05
    2.4874702096e-02    1.0178372656e+05
    2.4895232171e-02    1.0176844531e+05
    2.4915752932e-02    1.0175060156e+05
    2.4936262518e-02    1.0173139844e+05
    2.4956764653e-02    1.0170839844e+05
    2.4977253750e-02    1.0167908594e+05
    2.4997735396e-02    1.0165110156e+05
    2.5018205866e-02    1.0162841406e+05
    2.5038668886e-02    1.0160382031e+05
    2.5059120730e-02    1.0158146875e+05
    2.5079563260e-02    1.0155060156e+05
    2.5099996477e-02    1.0152961719e+05
    2.5120420381e-02    1.0150387500e+05
    2.5140833110e-02    1.0147352344e+05
    2.5161236525e-02    1.0144917969e+05
    2.5181630626e-02    1.0142705469e+05
    2.5202017277e-02    1.0140839844e+05
    2.5222390890e-02    1.0140049219e+05
    2.5242757052e-02    1.0138781250e+05
    2.5263112038e-02    1.0137783594e+05
    2.5283459574e-02    1.0137116406e+05
    2.5303795934e-02    1.0136121875e+05
    2.5324124843e-02    1.0134612500e+05
    2.5344440714e-02    1.0134281250e+05
    2.5364749134e-02    1.0133583594e+05
    2.5385048240e-02    1.0132933594e+05
    2.5405339897e-02    1.0133353906e+05
    2.5425618514e-02    1.0133435156e+05
    2.5445887819e-02    1.0133538281e+05
    2.5466147810e-02    1.0133883594e+05
    2.5486400351e-02    1.0134224219e+05
    2.5506639853e-02    1.0134453125e+05
    2.5526873767e-02    1.0135046094e+05
    2.5547094643e-02    1.0136572656e+05
    2.5567308068e-02    1.0137552344e+05
    2.5587510318e-02    1.0138437500e+05
    2.5607703254e-02    1.0140163281e+05
    2.5627886876e-02    1.0141859375e+05
    2.5648061186e-02    1.0143127344e+05
    2.5668226182e-02    1.0144721094e+05
    2.5688380003e-02    1.0146092969e+05
    2.5708526373e-02    1.0147065625e+05
    2.5728661567e-02    1.0149071094e+05
    2.5748789310e-02    1.0151664844e+05
    2.5768904015e-02    1.0152774219e+05
    2.5789011270e-02    1.0154599219e+05
    2.5809109211e-02    1.0155616406e+05
    2.5829195976e-02    1.0156568750e+05
    2.5849273428e-02    1.0156521094e+05
    2.5869343430e-02    1.0156589844e+05
    2.5889402255e-02    1.0156914844e+05
    2.5909451768e-02    1.0156433594e+05
    2.5929493830e-02    1.0155703906e+05
    2.5949522853e-02    1.0154934375e+05
    2.5969544426e-02    1.0153380469e+05
    2.5989556685e-02    1.0150680469e+05
    2.6009559631e-02    1.0147974219e+05
    2.6029553264e-02    1.0145335156e+05
    2.6049537584e-02    1.0142214844e+05
    2.6069512591e-02    1.0139315625e+05
    2.6089478284e-02    1.0135952344e+05
    2.6109432802e-02    1.0132360156e+05
    2.6129379869e-02    1.0128832031e+05
    2.6149315760e-02    1.0125453906e+05
    2.6169244200e-02    1.0121996875e+05
    2.6189163327e-02    1.0119366406e+05
    2.6209073141e-02    1.0116703125e+05
    2.6228975505e-02    1.0114843750e+05
    2.6248866692e-02    1.0112922656e+05
    2.6268748567e-02    1.0112122656e+05
    2.6288621128e-02    1.0112302344e+05
    2.6308484375e-02    1.0113333594e+05
    2.6328338310e-02    1.0114690625e+05
    2.6348184794e-02    1.0117047656e+05
    2.6368021965e-02    1.0119506250e+05
    2.6387847960e-02    1.0122282031e+05
    2.6407664642e-02    1.0124557031e+05
    2.6427472010e-02    1.0127925781e+05
    2.6447271928e-02    1.0131600000e+05
    2.6467062533e-02    1.0135214844e+05
    2.6486843824e-02    1.0138544531e+05
    2.6506617665e-02    1.0142221094e+05
    2.6526380330e-02    1.0146103906e+05
    2.6546133682e-02    1.0148885156e+05
    2.6565877721e-02    1.0151887500e+05
    2.6585612446e-02    1.0154965625e+05
    2.6605339721e-02    1.0157484375e+05
    2.6625057682e-02    1.0159459375e+05
    2.6644766331e-02    1.0161660156e+05
    2.6664465666e-02    1.0163962500e+05
    2.6684155688e-02    1.0166028125e+05
    2.6703836396e-02    1.0166997656e+05
    2.6723509654e-02    1.0168562500e+05
    2.6743173599e-02    1.0169730469e+05
    2.6762828231e-02    1.0170921875e+05
    2.6782475412e-02    1.0172112500e+05
    2.6802113280e-02    1.0173715625e+05
    2.6821739972e-02    1.0175510156e+05
    2.6841359213e-02    1.0177038281e+05
    2.6860967278e-02    1.0177481250e+05
    2.6880569756e-02    1.0178900781e+05
    2.6900164783e-02    1.0179575000e+05
    2.6919748634e-02    1.0180889844e+05
    2.6939325035e-02    1.0182265625e+05
    2.6958892122e-02    1.0182441406e+05
    2.6978449896e-02    1.0183702344e+05
    2.6997998357e-02    1.0184682031e+05
    2.7017539367e-02    1.0185133594e+05
    2.7037071064e-02    1.0185035156e+05
    2.7056595311e-02    1.0185292969e+05
    2.7076110244e-02    1.0185453125e+05
    2.7095617726e-02    1.0185536719e+05
    2.7115115896e-02    1.0185381250e+05
    2.7134604752e-02    1.0184997656e+05
    2.7154086158e-02    1.0183681250e+05
    2.7173558250e-02    1.0183322656e+05
    2.7193021029e-02    1.0182622656e+05
    2.7212476358e-02    1.0182064844e+05
    2.7231922373e-02    1.0181047656e+05
    2.7251357213e-02    1.0180163281e+05
    2.7270786464e-02    1.0178947656e+05
    2.7290204540e-02    1.0177960156e+05
    2.7309613302e-02    1.0177075000e+05
    2.7329014614e-02    1.0176340625e+05
    2.7348404750e-02    1.0175811719e+05
    2.7367785573e-02    1.0174922656e+05
    2.7387158945e-02    1.0173827344e+05
    2.7406521142e-02    1.0172733594e+05
    2.7425874025e-02    1.0172157031e+05
    2.7445219457e-02    1.0171446875e+05
    2.7464553714e-02    1.0170469531e+05
    2.7483878657e-02    1.0169608594e+05
    2.7503194287e-02    1.0168961719e+05
    2.7522502467e-02    1.0167885156e+05
    2.7541799471e-02    1.0167342969e+05
    2.7561087161e-02    1.0166690625e+05
    2.7580365539e-02    1.0165922656e+05
    2.7599634603e-02    1.0165396094e+05
    2.7618894354e-02    1.0165365625e+05
    2.7638144791e-02    1.0165203906e+05
    2.7657385916e-02    1.0164480469e+05
    2.7676619589e-02    1.0163413281e+05
    2.7695843950e-02    1.0162707031e+05
    2.7715058997e-02    1.0163035156e+05
    2.7734262869e-02    1.0162696094e+05
    2.7753459290e-02    1.0162137500e+05
    2.7772648260e-02    1.0161603125e+05
    2.7791827917e-02    1.0161108594e+05
    2.7810998261e-02    1.0161384375e+05
    2.7830159292e-02    1.0161694531e+05
    2.7849311009e-02    1.0162327344e+05
    2.7868455276e-02    1.0162197656e+05
    2.7887590230e-02    1.0162103125e+05
    2.7906717733e-02    1.0162518750e+05
    2.7925835922e-02    1.0162707031e+05
    2.7944946662e-02    1.0162816406e+05
    2.7964048088e-02    1.0162953125e+05
    2.7983140200e-02    1.0163615625e+05
    2.8002224863e-02    1.0163769531e+05
    2.8021300212e-02    1.0164782031e+05
    2.8040368110e-02    1.0164812500e+05
    2.8059426695e-02    1.0166030469e+05
    2.8078475967e-02    1.0166355469e+05
    2.8097519651e-02    1.0166469531e+05
    2.8116554022e-02    1.0166703906e+05
    2.8135580942e-02    1.0167083594e+05
    2.8154598549e-02    1.0167910156e+05
    2.8173606843e-02    1.0168078906e+05
    2.8192607686e-02    1.0168364844e+05
    2.8211599216e-02    1.0168643750e+05
    2.8230583295e-02    1.0168911719e+05
    2.8249559924e-02    1.0168947656e+05
    2.8268527240e-02    1.0168982031e+05
    2.8287487105e-02    1.0170291406e+05
    2.8306435794e-02    1.0169900781e+05
    2.8325378895e-02    1.0170266406e+05
    2.8344312683e-02    1.0169791406e+05
    2.8363237157e-02    1.0170024219e+05
    2.8382156044e-02    1.0170691406e+05
    2.8401065618e-02    1.0171424219e+05
    2.8419965878e-02    1.0171464844e+05
    2.8438858688e-02    1.0171828125e+05
    2.8457742184e-02    1.0172197656e+05
    2.8476616368e-02    1.0172453125e+05
    2.8495483100e-02    1.0172586719e+05
    2.8514338657e-02    1.0173116406e+05
    2.8533160686e-02    1.0173439844e+05
    2.8551930562e-02    1.0174347656e+05
    2.8570635244e-02    1.0174977344e+05
    2.8589271009e-02    1.0175593750e+05
    2.8607837856e-02    1.0176099219e+05
    2.8626350686e-02    1.0176350000e+05
    2.8644818813e-02    1.0176025781e+05
    2.8663259000e-02    1.0176374219e+05
    2.8681686148e-02    1.0176964844e+05
    2.8700113297e-02    1.0177342969e+05
    2.8718546033e-02    1.0177947656e+05
    2.8736986220e-02    1.0178205469e+05
    2.8755431995e-02    1.0178578906e+05
    2.8773877770e-02    1.0178933594e+05
    2.8792314231e-02    1.0179132031e+05
    2.8810730204e-02    1.0178491406e+05
    2.8829116374e-02    1.0178744531e+05
    2.8847465292e-02    1.0179009375e+05
    2.8865773231e-02    1.0179539844e+05
    2.8884036466e-02    1.0179935156e+05
    2.8902258724e-02    1.0179725000e+05
    2.8920443729e-02    1.0179847656e+05
    2.8938598931e-02    1.0180052344e+05
    2.8956729919e-02    1.0179535156e+05
    2.8974846005e-02    1.0179459375e+05
    2.8992949054e-02    1.0179689844e+05
    2.9011042789e-02    1.0179688281e+05
    2.9029129073e-02    1.0179810156e+05
    2.9047204182e-02    1.0179952344e+05
    2.9065268114e-02    1.0180235156e+05
    2.9083315283e-02    1.0180531250e+05
    2.9101338238e-02    1.0181039844e+05
    2.9119335115e-02    1.0180989844e+05
    2.9137304053e-02    1.0180808594e+05
    2.9155241325e-02    1.0181052344e+05
    2.9173148796e-02    1.0181275781e+05
    2.9191024601e-02    1.0180453906e+05
    2.9208874330e-02    1.0180553906e+05
    2.9226697981e-02    1.0181449219e+05
    2.9244501144e-02    1.0181449219e+05
    2.9262285680e-02    1.0180878906e+05
    2.9280053452e-02    1.0181097656e+05
    2.9297806323e-02    1.0181318750e+05
    2.9315544292e-02    1.0180930469e+05
    2.9333265498e-02    1.0180987500e+05
    2.9350971803e-02    1.0181021875e+05
    2.9368655756e-02    1.0181033594e+05
    2.9386319220e-02    1.0180669531e+05
    2.9403960332e-02    1.0180522656e+05
    2.9421577230e-02    1.0180060156e+05
    2.9439168051e-02    1.0180967969e+05
    2.9456734657e-02    1.0180974219e+05
    2.9474277049e-02    1.0180989844e+05
    2.9491795227e-02    1.0181003906e+05
    2.9509292915e-02    1.0181139844e+05
    2.9526771978e-02    1.0181052344e+05
    2.9544232413e-02    1.0181088281e+05
    2.9561674222e-02    1.0181016406e+05
    2.9579099268e-02    1.0181627344e+05
    2.9596509412e-02    1.0181697656e+05
    2.9613900930e-02    1.0181793750e+05
    2.9631273821e-02    1.0182400781e+05
    2.9648626223e-02    1.0183017969e+05
    2.9665958136e-02    1.0183564844e+05
    2.9683271423e-02    1.0184280469e+05
    2.9700560495e-02    1.0184533594e+05
    2.9717829078e-02    1.0184800781e+05
    2.9735075310e-02    1.0185419531e+05
    2.9752301052e-02    1.0186316406e+05
    2.9769508168e-02    1.0186765625e+05
    2.9786696658e-02    1.0187002344e+05
    2.9803866521e-02    1.0187253125e+05
    2.9821017757e-02    1.0187866406e+05
    2.9838152230e-02    1.0188721875e+05
    2.9855269939e-02    1.0189865625e+05
    2.9872370884e-02    1.0190099219e+05
    2.9889453202e-02    1.0190560156e+05
    2.9906518757e-02    1.0190571094e+05
    2.9923565686e-02    1.0191014844e+05
    2.9940593988e-02    1.0190962500e+05
    2.9957601801e-02    1.0191596875e+05
    2.9974590987e-02    1.0191865625e+05
    2.9991561547e-02    1.0192111719e+05
    3.0008511618e-02    1.0192224219e+05
    3.0025444925e-02    1.0191819531e+05
    3.0042361468e-02    1.0192091406e+05
    3.0059259385e-02    1.0192225781e+05
    3.0076142401e-02    1.0191889844e+05
    3.0093006790e-02    1.0191706250e+05
    3.0109854415e-02    1.0191515625e+05
    3.0126683414e-02    1.0191365625e+05
    3.0143497512e-02    1.0190793750e+05
    3.0160292983e-02    1.0189715625e+05
    3.0177071691e-02    1.0189162500e+05
    3.0193833634e-02    1.0188510156e+05
    3.0210576952e-02    1.0187946094e+05
    3.0227303505e-02    1.0187190625e+05
    3.0244011432e-02    1.0186763281e+05
    3.0260702595e-02    1.0186212500e+05
    3.0277376994e-02    1.0186108594e+05
    3.0294034630e-02    1.0185543750e+05
    3.0310675502e-02    1.0185222656e+05
    3.0327299610e-02    1.0185022656e+05
    3.0343905091e-02    1.0184608594e+05
    3.0360495672e-02    1.0184310156e+05
    3.0377071351e-02    1.0184025781e+05
    3.0393628404e-02    1.0183961719e+05
    3.0410168692e-02    1.0183341406e+05
    3.0426690355e-02    1.0182946094e+05
    3.0443195254e-02    1.0183452344e+05
    3.0459685251e-02    1.0183314844e+05
    3.0476156622e-02    1.0183330469e+05
    3.0492611229e-02    1.0183375781e+05
    3.0509050936e-02    1.0183230469e+05
    3.0525473878e-02    1.0184038281e+05
    3.0541881919e-02    1.0183983594e+05
    3.0558273196e-02    1.0183958594e+05
    3.0574647710e-02    1.0184622656e+05
    3.0591005459e-02    1.0184630469e+05
    3.0607348308e-02    1.0184641406e+05
    3.0623674393e-02    1.0185131250e+05
    3.0639985576e-02    1.0184671875e+05
    3.0656279996e-02    1.0185163281e+05
    3.0672557652e-02    1.0185184375e+05
    3.0688818544e-02    1.0185435156e+05
    3.0705062672e-02    1.0184996094e+05
    3.0721291900e-02    1.0185494531e+05
    3.0737506226e-02    1.0185658594e+05
    3.0753703788e-02    1.0185608594e+05
    3.0769886449e-02    1.0185811719e+05
    3.0786054209e-02    1.0186037500e+05
    3.0802207068e-02    1.0186619531e+05
    3.0818343163e-02    1.0187271094e+05
    3.0834466219e-02    1.0187592969e+05
    3.0850572512e-02    1.0187935156e+05
    3.0866663903e-02    1.0188175781e+05
    3.0882738531e-02    1.0188422656e+05
    3.0898798257e-02    1.0188558594e+05
    3.0914843082e-02    1.0188928906e+05
    3.0930871144e-02    1.0189202344e+05
    3.0946886167e-02    1.0189924219e+05
    3.0962884426e-02    1.0190227344e+05
    3.0978867784e-02    1.0191014844e+05
    3.0994836241e-02    1.0191321875e+05
    3.1010789797e-02    1.0191394531e+05
    3.1026728451e-02    1.0191678906e+05
    3.1042650342e-02    1.0192072656e+05
    3.1058559194e-02    1.0192353906e+05
    3.1074455008e-02    1.0192414844e+05
    3.1090334058e-02    1.0192816406e+05
    3.1106200069e-02    1.0192875000e+05
    3.1122051179e-02    1.0193269531e+05
    3.1137887388e-02    1.0192978125e+05
    3.1153710559e-02    1.0193218750e+05
    3.1169516966e-02    1.0193782031e+05
    3.1185310334e-02    1.0194011719e+05
    3.1201090664e-02    1.0194114844e+05
    3.1216854230e-02    1.0193637500e+05
    3.1232602894e-02    1.0193590625e+05
    3.1248336658e-02    1.0194028906e+05
    3.1264055520e-02    1.0194674219e+05
    3.1279761344e-02    1.0194396094e+05
    3.1295452267e-02    1.0194346875e+05
    3.1311132014e-02    1.0194414844e+05
    3.1326796860e-02    1.0194924219e+05
    3.1342446804e-02    1.0194896094e+05
    3.1358085573e-02    1.0195077344e+05
    3.1373709440e-02    1.0196066406e+05
    3.1389318407e-02    1.0196155469e+05
    3.1404916197e-02    1.0196136719e+05
    3.1420499086e-02    1.0196328906e+05
    3.1436067075e-02    1.0195935156e+05
    3.1451620162e-02    1.0196227344e+05
    3.1467158347e-02    1.0197116406e+05
    3.1482685357e-02    1.0197560156e+05
    3.1498193741e-02    1.0197775000e+05
    3.1513694674e-02    1.0197778125e+05
    3.1529176980e-02    1.0198018750e+05
    3.1544648111e-02    1.0198400000e+05
    3.1560108066e-02    1.0199725000e+05
    3.1575553119e-02    1.0199813281e+05
    3.1590986997e-02    1.0200360156e+05
    3.1606405973e-02    1.0200436719e+05
    3.1621813774e-02    1.0200508594e+05
    3.1637206674e-02    1.0200807031e+05
    3.1652588397e-02    1.0200652344e+05
    3.1667951494e-02    1.0200821875e+05
    3.1683307141e-02    1.0201211719e+05
    3.1698647887e-02    1.0201242969e+05
    3.1713977456e-02    1.0201607031e+05
    3.1729292125e-02    1.0201950000e+05
    3.1744595617e-02    1.0201234375e+05
    3.1759884208e-02    1.0201409375e+05
    3.1775161624e-02    1.0201553906e+05
    3.1790427864e-02    1.0201307031e+05
    3.1805675477e-02    1.0201047656e+05
    3.1820915639e-02    1.0200843750e+05
    3.1836140901e-02    1.0200350000e+05
    3.1851354986e-02    1.0199855469e+05
    3.1866557896e-02    1.0199771094e+05
    3.1881745905e-02    1.0199553125e+05
    3.1896922737e-02    1.0198642969e+05
    3.1912088394e-02    1.0198647656e+05
    3.1927239150e-02    1.0198439844e+05
    3.1942378730e-02    1.0199510156e+05
    3.1957507133e-02    1.0199338281e+05
    3.1972620636e-02    1.0199177344e+05
    3.1987726688e-02    1.0199356250e+05
    3.2002814114e-02    1.0199074219e+05
    3.2017890364e-02    1.0199121875e+05
    3.2032959163e-02    1.0198931250e+05
    3.2048013061e-02    1.0197912500e+05
    3.2063052058e-02    1.0198521875e+05
    3.2078083605e-02    1.0198887500e+05
    3.2093103975e-02    1.0198838281e+05
    3.2108109444e-02    1.0199058594e+05
    3.2123107463e-02    1.0200010156e+05
    3.2138090581e-02    1.0199864844e+05
    3.2153062522e-02    1.0200450781e+05
    3.2168023288e-02    1.0200827344e+05
    3.2182972878e-02    1.0201497656e+05
    3.2197911292e-02    1.0202406250e+05
    3.2212834805e-02    1.0202553125e+05
    3.2227750868e-02    1.0202967969e+05
    3.2242652029e-02    1.0203771875e+05
    3.2257542014e-02    1.0204696094e+05
    3.2272424549e-02    1.0205211719e+05
    3.2287292182e-02    1.0205994531e+05
    3.2302148640e-02    1.0206758594e+05
    3.2316997647e-02    1.0207210156e+05
    3.2331831753e-02    1.0207671094e+05
    3.2346658409e-02    1.0208139844e+05
    3.2361470163e-02    1.0208611719e+05
    3.2376270741e-02    1.0209096875e+05
    3.2391063869e-02    1.0209824219e+05
    3.2405842096e-02    1.0210322656e+05
    3.2420612872e-02    1.0210685156e+05
    3.2435368747e-02    1.0211027344e+05
    3.2450113446e-02    1.0211447656e+05
    3.2464850694e-02    1.0210912500e+05
    3.2479573041e-02    1.0211141406e+05
    3.2494287938e-02    1.0211328125e+05
    3.2508991659e-02    1.0210946094e+05
    3.2523684204e-02    1.0211230469e+05
    3.2538365573e-02    1.0211627344e+05
    3.2553035766e-02    1.0211796094e+05
    3.2567698509e-02    1.0212300781e+05
    3.2582346350e-02    1.0212331250e+05
    3.2596986741e-02    1.0212566406e+05
    3.2611619681e-02    1.0212289844e+05
    3.2626237720e-02    1.0211993750e+05
    3.2640848309e-02    1.0211618750e+05
    3.2655447721e-02    1.0211242969e+05
    3.2670035958e-02    1.0211283594e+05
    3.2684613019e-02    1.0211422656e+05
    3.2699178904e-02    1.0211439844e+05
    3.2713737339e-02    1.0211331250e+05
    3.2728284597e-02    1.0211321094e+05
    3.2742820680e-02    1.0210385156e+05
    3.2757349312e-02    1.0210356250e+05
    3.2771866769e-02    1.0210443750e+05
    3.2786373049e-02    1.0210533594e+05
    3.2800871879e-02    1.0210282031e+05
    3.2815355808e-02    1.0210144531e+05
    3.2829832286e-02    1.0210117969e+05
    3.2844301313e-02    1.0210084375e+05
    3.2858755440e-02    1.0210138281e+05
    3.2873202115e-02    1.0210053906e+05
    3.2887637615e-02    1.0209132031e+05
    3.2902065665e-02    1.0208988281e+05
    3.2916482538e-02    1.0208830469e+05
    3.2930891961e-02    1.0208662500e+05
    3.2945290208e-02    1.0208489844e+05
    3.2959677279e-02    1.0208308594e+05
    3.2974056900e-02    1.0207562500e+05
    3.2988425344e-02    1.0207807031e+05
    3.3002786338e-02    1.0207133594e+05
    3.3017136157e-02    1.0206934375e+05
    3.3031478524e-02    1.0206978125e+05
    3.3045809716e-02    1.0207028906e+05
    3.3060129732e-02    1.0206846094e+05
    3.3074442297e-02    1.0206657031e+05
    3.3088747412e-02    1.0206463281e+05
    3.3103041351e-02    1.0205350781e+05
    3.3117324114e-02    1.0206291406e+05
    3.3131599426e-02    1.0206088281e+05
    3.3145863563e-02    1.0205533594e+05
    3.3160120249e-02    1.0204393750e+05
    3.3174365759e-02    1.0204172656e+05
    3.3188603818e-02    1.0204996094e+05
    3.3202830702e-02    1.0204800781e+05
    3.3217050135e-02    1.0204728906e+05
    3.3231258392e-02    1.0204539844e+05
    3.3245459199e-02    1.0204119531e+05
    3.3259648830e-02    1.0203956250e+05
    3.3273831010e-02    1.0203677344e+05
    3.3288005739e-02    1.0203743750e+05
    3.3302169293e-02    1.0203603125e+05
    3.3316325396e-02    1.0203578125e+05
    3.3330474049e-02    1.0203571875e+05
    3.3344611526e-02    1.0203353906e+05
    3.3358741552e-02    1.0204072656e+05
    3.3372864127e-02    1.0203999219e+05
    3.3386975527e-02    1.0203914844e+05
    3.3401079476e-02    1.0203589844e+05
    3.3415172249e-02    1.0203480469e+05
    3.3429257572e-02    1.0202562500e+05
    3.3443335444e-02    1.0202549219e+05
    3.3457405865e-02    1.0202661719e+05
    3.3471468836e-02    1.0203147656e+05
    3.3485524356e-02    1.0203175000e+05
    3.3499568701e-02    1.0202975781e+05
    3.3513605595e-02    1.0202768750e+05
    3.3527631313e-02    1.0202897656e+05
    3.3541653305e-02    1.0202442969e+05
    3.3555664122e-02    1.0202472656e+05
    3.3569667488e-02    1.0202394531e+05
    3.3583663404e-02    1.0202566406e+05
    3.3597648144e-02    1.0202535156e+05
    3.3611625433e-02    1.0202530469e+05
    3.3625595272e-02    1.0203246875e+05
    3.3639557660e-02    1.0203268750e+05
    3.3653512597e-02    1.0203517969e+05
    3.3667460084e-02    1.0202493750e+05
    3.3681396395e-02    1.0202366406e+05
    3.3695328981e-02    1.0202575781e+05
    3.3709254116e-02    1.0202341406e+05
    3.3723168075e-02    1.0202915625e+05
    3.3737078309e-02    1.0203535156e+05
    3.3750977367e-02    1.0203478125e+05
    3.3764872700e-02    1.0203657031e+05
    3.3778760582e-02    1.0203734375e+05
    3.3792637289e-02    1.0203819531e+05
    3.3806510270e-02    1.0204008594e+05
    3.3820372075e-02    1.0204075781e+05
    3.3834230155e-02    1.0204005469e+05
    3.3848077059e-02    1.0204021875e+05
    3.3861916512e-02    1.0203331250e+05
    3.3875752240e-02    1.0203336719e+05
    3.3889576793e-02    1.0203807031e+05
    3.3903393894e-02    1.0203950000e+05
    3.3917203546e-02    1.0204086719e+05
    3.3931009471e-02    1.0203441406e+05
    3.3944804221e-02    1.0203914844e+05
    3.3958595246e-02    1.0204164844e+05
    3.3972378820e-02    1.0203960156e+05
    3.3986151218e-02    1.0203747656e+05
    3.3999919891e-02    1.0204246875e+05
    3.4013681114e-02    1.0204274219e+05
    3.4027434886e-02    1.0204300000e+05
    3.4041177481e-02    1.0204325781e+05
    3.4054916352e-02    1.0204457031e+05
    3.4068647772e-02    1.0204359375e+05
    3.4082375467e-02    1.0204131250e+05
    3.4096091986e-02    1.0203890625e+05
    3.4109804779e-02    1.0203439844e+05
    3.4123510122e-02    1.0203438281e+05
    3.4137208015e-02    1.0203439844e+05
    3.4150898457e-02    1.0203687500e+05
    3.4164581448e-02    1.0203703125e+05
    3.4178260714e-02    1.0203489844e+05
    3.4191932529e-02    1.0204437500e+05
    3.4205596894e-02    1.0204002344e+05
    3.4219253808e-02    1.0204036719e+05
    3.4232903272e-02    1.0203839844e+05
    3.4246545285e-02    1.0203627344e+05
    3.4260183573e-02    1.0203400781e+05
    3.4273810685e-02    1.0203627344e+05
    3.4287434071e-02    1.0203617969e+05
    3.4301050007e-02    1.0203603125e+05
    3.4314658493e-02    1.0203571094e+05
    3.4328263253e-02    1.0203518750e+05
    3.4341860563e-02    1.0202965625e+05
    3.4355450422e-02    1.0202639844e+05
    3.4369036555e-02    1.0202319531e+05
    3.4382611513e-02    1.0201974219e+05
    3.4396182746e-02    1.0202090625e+05
    3.4409742802e-02    1.0202007031e+05
    3.4423299134e-02    1.0202839844e+05
    3.4436848015e-02    1.0202777344e+05
    3.4450393170e-02    1.0202592969e+05
    3.4463927150e-02    1.0202621094e+05
    3.4477461129e-02    1.0201377344e+05
    3.4490987659e-02    1.0201486719e+05
    3.4504506737e-02    1.0201133594e+05
    3.4518022090e-02    1.0201002344e+05
    3.4531529993e-02    1.0201209375e+05
    3.4545030445e-02    1.0200750000e+05
    3.4558523446e-02    1.0200860156e+05
    3.4572008997e-02    1.0200514844e+05
    3.4585487098e-02    1.0200633594e+05
    3.4598957747e-02    1.0200530469e+05
    3.4612424672e-02    1.0200427344e+05
    3.4625884145e-02    1.0200332031e+05
    3.4639336169e-02    1.0200121094e+05
    3.4652780741e-02    1.0200141406e+05
    3.4666225314e-02    1.0200046875e+05
    3.4679658711e-02    1.0199721094e+05
    3.4693088382e-02    1.0199841406e+05
    3.4706510603e-02    1.0199733594e+05
    3.4719929099e-02    1.0199624219e+05
    3.4733340144e-02    1.0199505469e+05
    3.4746743739e-02    1.0199383594e+05
    3.4760143608e-02    1.0199366406e+05
    3.4773536026e-02    1.0199111719e+05
    3.4786924720e-02    1.0198960156e+05
    3.4800305963e-02    1.0198807031e+05
    3.4813679755e-02    1.0198653906e+05
    3.4827046096e-02    1.0198502344e+05
    3.4840408713e-02    1.0198116406e+05
    3.4853763878e-02    1.0197968750e+05
    3.4867111593e-02    1.0198175781e+05
    3.4880455583e-02    1.0198156250e+05
    3.4893795848e-02    1.0198035156e+05
    3.4907124937e-02    1.0197922656e+05
    3.4920454025e-02    1.0197822656e+05
    3.4933775663e-02    1.0197846875e+05
    3.4947093576e-02    1.0197652344e+05
    3.4960404038e-02    1.0197587500e+05
    3.4973710775e-02    1.0197978125e+05
    3.4987010062e-02    1.0197941406e+05
endcurve
