Curveplot
LS-DYNA keyword deck by LS-PrePost                          
Time
Pressure
Defined Connection
Pressure @ 14 #pts=1745
* Minval=     9.8422070312e+04 at time=         0.0130216638
* Maxval=     1.7171523438e+05 at time=         0.0060972143
    0.0000000000e+00    9.9997773438e+04
    3.3812357287e-05    9.9997773438e+04
    6.1326652940e-05    9.9998554688e+04
    8.9102875791e-05    9.9998085938e+04
    1.1682785407e-04    9.9998242188e+04
    1.4461828687e-04    9.9999117188e+04
    1.7236733402e-04    9.9999742188e+04
    2.0016246708e-04    1.0000897656e+05
    2.2795486439e-04    1.0000071094e+05
    2.5574557367e-04    1.0000044531e+05
    2.8353667585e-04    1.0000058594e+05
    3.1133697485e-04    9.9990656250e+04
    3.3912662184e-04    9.9999585938e+04
    3.6691734567e-04    1.0000002344e+05
    3.9470891352e-04    1.0000046094e+05
    4.2249175021e-04    1.0000981250e+05
    4.5027161832e-04    1.0000110156e+05
    4.7804549104e-04    1.0000096094e+05
    5.0581363030e-04    9.9991687500e+04
    5.3357944125e-04    1.0000078906e+05
    5.6134146871e-04    1.0000075000e+05
    5.8909942163e-04    1.0000044531e+05
    6.1685312539e-04    1.0000078906e+05
    6.4460188150e-04    1.0000071094e+05
    6.7234638846e-04    1.0000580469e+05
    7.0008635521e-04    1.0000139844e+05
    7.2782178177e-04    1.0000139844e+05
    7.5555208605e-04    9.9991960938e+04
    7.8327720985e-04    9.9996070312e+04
    8.1099680392e-04    1.0000034375e+05
    8.3871174138e-04    1.0001012500e+05
    8.6642213864e-04    1.0000152344e+05
    8.9412782108e-04    9.9991898438e+04
    9.2182843946e-04    9.9991101562e+04
    9.4952445943e-04    9.9999968750e+04
    9.7721535712e-04    1.0000931250e+05
    1.0049008997e-03    1.0000066406e+05
    1.0325826006e-03    1.0000094531e+05
    1.0602590628e-03    1.0000103125e+05
    1.0879321489e-03    1.0000146875e+05
    1.1155996472e-03    1.0000847656e+05
    1.1432634201e-03    9.9999226562e+04
    1.1709230021e-03    9.9989242188e+04
    1.1985785095e-03    9.9990773438e+04
    1.2262313394e-03    1.0000014844e+05
    1.2538790470e-03    1.0001031250e+05
    1.2815232622e-03    1.0001147656e+05
    1.3091630535e-03    1.0000300781e+05
    1.3368004002e-03    9.9995273438e+04
    1.3644339051e-03    1.0000135156e+05
    1.3920635683e-03    1.0002247656e+05
    1.4196902048e-03    1.0005347656e+05
    1.4473132323e-03    1.0010502344e+05
    1.4749332331e-03    1.0019559375e+05
    1.5025498578e-03    1.0032639844e+05
    1.5301633393e-03    1.0052212500e+05
    1.5577742597e-03    1.0077416406e+05
    1.5853822697e-03    1.0109453906e+05
    1.6129877185e-03    1.0146250781e+05
    1.6405890929e-03    1.0186502344e+05
    1.6681876732e-03    1.0224868750e+05
    1.6957829939e-03    1.0259928906e+05
    1.7233766848e-03    1.0287478906e+05
    1.7509678146e-03    1.0305141406e+05
    1.7785291420e-03    1.0313864844e+05
    1.8060547300e-03    1.0313166406e+05
    1.8335470231e-03    1.0305381250e+05
    1.8610082334e-03    1.0291921094e+05
    1.8884401070e-03    1.0275114844e+05
    1.9158447394e-03    1.0257896094e+05
    1.9432241097e-03    1.0242030469e+05
    1.9705800805e-03    1.0229281250e+05
    1.9979148638e-03    1.0221991406e+05
    2.0252298564e-03    1.0219371094e+05
    2.0525271539e-03    1.0221897656e+05
    2.0798076876e-03    1.0227628125e+05
    2.1070730872e-03    1.0234672656e+05
    2.1343247499e-03    1.0241435156e+05
    2.1615643054e-03    1.0247892969e+05
    2.1887931507e-03    1.0251899219e+05
    2.2160108201e-03    1.0254190625e+05
    2.2432196420e-03    1.0254224219e+05
    2.2704207804e-03    1.0251696094e+05
    2.2976147011e-03    1.0248416406e+05
    2.3248014040e-03    1.0244885156e+05
    2.3519827519e-03    1.0241503125e+05
    2.3791582789e-03    1.0239006250e+05
    2.4063293822e-03    1.0237910156e+05
    2.4334960617e-03    1.0238653906e+05
    2.4606597144e-03    1.0239762500e+05
    2.4878205732e-03    1.0241210156e+05
    2.5149781723e-03    1.0242746875e+05
    2.5421329774e-03    1.0244113281e+05
    2.5692859199e-03    1.0244722656e+05
    2.5964374654e-03    1.0244091406e+05
    2.6235871483e-03    1.0244158594e+05
    2.6507352013e-03    1.0244506250e+05
    2.6778825559e-03    1.0243386719e+05
    2.7050296776e-03    1.0242485156e+05
    2.7321761008e-03    1.0241813281e+05
    2.7593218256e-03    1.0241239844e+05
    2.7864677832e-03    1.0241574219e+05
    2.8136142064e-03    1.0242257031e+05
    2.8407603968e-03    1.0243031250e+05
    2.8679079842e-03    1.0244540625e+05
    2.8950548731e-03    1.0246115625e+05
    2.9222022276e-03    1.0248597656e+05
    2.9493502807e-03    1.0252257031e+05
    2.9764990322e-03    1.0257221094e+05
    3.0036487151e-03    1.0264103906e+05
    3.0307997949e-03    1.0272569531e+05
    3.0579508748e-03    1.0281185156e+05
    3.0851035845e-03    1.0291191406e+05
    3.1122572254e-03    1.0301430469e+05
    3.1394117977e-03    1.0312008594e+05
    3.1665677670e-03    1.0321200781e+05
    3.1937246677e-03    1.0326902344e+05
    3.2208829653e-03    1.0330399219e+05
    3.2480424270e-03    1.0331227344e+05
    3.2752046827e-03    1.0329118750e+05
    3.2952371985e-03    1.0326033594e+05
    3.3145032357e-03    1.0322753125e+05
    3.3336398192e-03    1.0319616406e+05
    3.3528339118e-03    1.0315966406e+05
    3.3720366191e-03    1.0313078906e+05
    3.3912549261e-03    1.0309619531e+05
    3.4104890656e-03    1.0307135156e+05
    3.4297339153e-03    1.0304786719e+05
    3.4486323129e-03    1.0302633594e+05
    3.4671388566e-03    1.0300957031e+05
    3.4854323603e-03    1.0299615625e+05
    3.5036695190e-03    1.0298443750e+05
    3.5219141282e-03    1.0297218750e+05
    3.5401545465e-03    1.0296658594e+05
    3.5583588760e-03    1.0296794531e+05
    3.5765271168e-03    1.0297922656e+05
    3.5946895368e-03    1.0300272656e+05
    3.6139658187e-03    1.0303721094e+05
    3.6330535077e-03    1.0308756250e+05
    3.6521453876e-03    1.0315308594e+05
    3.6699753255e-03    1.0322233594e+05
    3.6875614896e-03    1.0329261719e+05
    3.7050142419e-03    1.0336053125e+05
    3.7224807311e-03    1.0341772656e+05
    3.7400643341e-03    1.0347002344e+05
    3.7577797193e-03    1.0351302344e+05
    3.7755726371e-03    1.0354100000e+05
    3.7933769636e-03    1.0355697656e+05
    3.8111612666e-03    1.0356027344e+05
    3.8289318327e-03    1.0354760156e+05
    3.8467168342e-03    1.0352249219e+05
    3.8645383902e-03    1.0347860156e+05
    3.8824023213e-03    1.0341600000e+05
    3.9002960548e-03    1.0333621875e+05
    3.9182156324e-03    1.0323042969e+05
    3.9361710660e-03    1.0311735156e+05
    3.9541716687e-03    1.0298008594e+05
    3.9733103476e-03    1.0284271094e+05
    3.9924201556e-03    1.0269294531e+05
    4.0104058571e-03    1.0253728125e+05
    4.0284004062e-03    1.0239152344e+05
    4.0464363992e-03    1.0225325781e+05
    4.0656095371e-03    1.0211471094e+05
    4.0847789496e-03    1.0197833594e+05
    4.1039343923e-03    1.0185011719e+05
    4.1219722480e-03    1.0173591406e+05
    4.1400394402e-03    1.0163571094e+05
    4.1591953486e-03    1.0155649219e+05
    4.1784178466e-03    1.0148303125e+05
    4.1976389475e-03    1.0142337500e+05
    4.2168586515e-03    1.0137981250e+05
    4.2360713705e-03    1.0135210156e+05
    4.2552771047e-03    1.0133306250e+05
    4.2744791135e-03    1.0132141406e+05
    4.2936825193e-03    1.0132339844e+05
    4.3128933758e-03    1.0132407031e+05
    4.3321144767e-03    1.0132380469e+05
    4.3513495475e-03    1.0133068750e+05
    4.3705995195e-03    1.0133396094e+05
    4.3898657896e-03    1.0133428906e+05
    4.4091497548e-03    1.0132539844e+05
    4.4284537435e-03    1.0131014844e+05
    4.4477786869e-03    1.0128291406e+05
    4.4671236537e-03    1.0123964844e+05
    4.4864914380e-03    1.0118833594e+05
    4.5058806427e-03    1.0111690625e+05
    4.5252908021e-03    1.0102732031e+05
    4.5447219163e-03    1.0092828125e+05
    4.5641721226e-03    1.0081494531e+05
    4.5836409554e-03    1.0069017969e+05
    4.6031279489e-03    1.0055265625e+05
    4.6226321720e-03    1.0040291406e+05
    4.6421540901e-03    1.0025441406e+05
    4.6616927721e-03    1.0010032031e+05
    4.6812482178e-03    9.9952726562e+04
    4.7008208930e-03    9.9813835938e+04
    4.7204112634e-03    9.9680101562e+04
    4.7400193289e-03    9.9566968750e+04
    4.7596455552e-03    9.9467929688e+04
    4.7792894766e-03    9.9391562500e+04
    4.7989510931e-03    9.9339804688e+04
    4.8186304048e-03    9.9313398438e+04
    4.8383255489e-03    9.9310351562e+04
    4.8580355942e-03    9.9323726562e+04
    4.8777610064e-03    9.9361664062e+04
    4.8975008540e-03    9.9411367188e+04
    4.9172551371e-03    9.9473726562e+04
    4.9370229244e-03    9.9544226562e+04
    4.9568060786e-03    9.9614773438e+04
    4.9766036682e-03    9.9689218750e+04
    4.9964170903e-03    9.9756648438e+04
    5.0162458792e-03    9.9822117188e+04
    5.0360900350e-03    9.9879242188e+04
    5.0559476949e-03    9.9924750000e+04
    5.0758207217e-03    9.9967273438e+04
    5.0957072526e-03    9.9999476562e+04
    5.1156077534e-03    1.0002616406e+05
    5.1355226897e-03    1.0004297656e+05
    5.1554525271e-03    1.0005249219e+05
    5.1753963344e-03    1.0005607031e+05
    5.1953555085e-03    1.0006077344e+05
    5.2153295837e-03    1.0006772656e+05
    5.2353194915e-03    1.0007128125e+05
    5.2553247660e-03    1.0008055469e+05
    5.2753463387e-03    1.0009216406e+05
    5.2953832783e-03    1.0010391406e+05
    5.3154369816e-03    1.0012193750e+05
    5.3355065174e-03    1.0014171094e+05
    5.3555918857e-03    1.0016503906e+05
    5.3756926209e-03    1.0018741406e+05
    5.3958082572e-03    1.0021535156e+05
    5.4159392603e-03    1.0023910156e+05
    5.4360851645e-03    1.0026546094e+05
    5.4562464356e-03    1.0028858594e+05
    5.4764230736e-03    1.0030832031e+05
    5.4966160096e-03    1.0032164844e+05
    5.5168238468e-03    1.0033515625e+05
    5.5370470509e-03    1.0034758594e+05
    5.5572865531e-03    1.0036042969e+05
    5.5775423534e-03    1.0036808594e+05
    5.5978130549e-03    1.0037530469e+05
    5.6181000546e-03    1.0038653125e+05
    5.6384028867e-03    1.0039306250e+05
    5.6587206200e-03    1.0039927344e+05
    5.6790532544e-03    1.0041060156e+05
    5.6994007900e-03    1.0042014844e+05
    5.7197632268e-03    1.0043197656e+05
    5.7401410304e-03    1.0044178125e+05
    5.7605337352e-03    1.0045938281e+05
    5.7809422724e-03    1.0047300781e+05
    5.8013652451e-03    1.0050722656e+05
    5.8218040504e-03    1.0056388281e+05
    5.8422577567e-03    1.0068244531e+05
    5.8627268299e-03    1.0094272656e+05
    5.8832112700e-03    1.0154364844e+05
    5.9037101455e-03    1.0286583594e+05
    5.9242248535e-03    1.0562183594e+05
    5.9447535314e-03    1.1075396094e+05
    5.9641525149e-03    1.1898814844e+05
    5.9830932878e-03    1.2946977344e+05
    6.0020405799e-03    1.4112215625e+05
    6.0210367665e-03    1.5239800000e+05
    6.0400799848e-03    1.6160334375e+05
    6.0591096990e-03    1.6779864062e+05
    6.0781282373e-03    1.7094245312e+05
    6.0972142965e-03    1.7171523438e+05
    6.1162756756e-03    1.7104181250e+05
    6.1353649944e-03    1.6969817188e+05
    6.1544459313e-03    1.6826525000e+05
    6.1734300107e-03    1.6693114062e+05
    6.1924448237e-03    1.6567648438e+05
    6.2115197070e-03    1.6434620312e+05
    6.2306127511e-03    1.6286231250e+05
    6.2497169711e-03    1.6120900000e+05
    6.2688281760e-03    1.5943790625e+05
    6.2879407778e-03    1.5760881250e+05
    6.3070552424e-03    1.5578746875e+05
    6.3261794858e-03    1.5402839062e+05
    6.3453060575e-03    1.5235218750e+05
    6.3644465990e-03    1.5075923438e+05
    6.3835908659e-03    1.4924417188e+05
    6.4027444459e-03    1.4776557812e+05
    6.4219115302e-03    1.4632895312e+05
    6.4410855994e-03    1.4491060938e+05
    6.4602680504e-03    1.4350503125e+05
    6.4794607460e-03    1.4215384375e+05
    6.4986641519e-03    1.4085198438e+05
    6.5178787336e-03    1.3962793750e+05
    6.5371058881e-03    1.3847700000e+05
    6.5563363023e-03    1.3739979688e+05
    6.5755699761e-03    1.3637553125e+05
    6.5948092379e-03    1.3540526562e+05
    6.6140629351e-03    1.3447751562e+05
    6.6333152354e-03    1.3360423438e+05
    6.6525745206e-03    1.3276982812e+05
    6.6718445159e-03    1.3198106250e+05
    6.6911154427e-03    1.3122732812e+05
    6.7104012705e-03    1.3051360156e+05
    6.7296870984e-03    1.2982871094e+05
    6.7489854991e-03    1.2916712500e+05
    6.7682852969e-03    1.2852652344e+05
    6.7875892855e-03    1.2790128906e+05
    6.8069072440e-03    1.2729975000e+05
    6.8262196146e-03    1.2671246875e+05
    6.8455408327e-03    1.2614341406e+05
    6.8648783490e-03    1.2558940625e+05
    6.8842126057e-03    1.2506036719e+05
    6.9035501219e-03    1.2455653906e+05
    6.9228983484e-03    1.2408433594e+05
    6.9422605447e-03    1.2363886719e+05
    6.9616222754e-03    1.2322366406e+05
    6.9809844717e-03    1.2283328125e+05
    7.0003494620e-03    1.2246441406e+05
    7.0197195746e-03    1.2211712500e+05
    7.0390999317e-03    1.2178717969e+05
    7.0584909990e-03    1.2147493750e+05
    7.0778946392e-03    1.2117662500e+05
    7.0973108523e-03    1.2089172656e+05
    7.1167377755e-03    1.2061353906e+05
    7.1361698210e-03    1.2035135156e+05
    7.1556069888e-03    1.2009285156e+05
    7.1750483476e-03    1.1983758594e+05
    7.1944966912e-03    1.1958914844e+05
    7.2139529511e-03    1.1935233594e+05
    7.2334166616e-03    1.1910746875e+05
    7.2528840974e-03    1.1886375781e+05
    7.2723543271e-03    1.1862056250e+05
    7.2918278165e-03    1.1837671094e+05
    7.3113050312e-03    1.1813328906e+05
    7.3307845742e-03    1.1788985156e+05
    7.3502692394e-03    1.1764593750e+05
    7.3697618209e-03    1.1740591406e+05
    7.3892641813e-03    1.1715925000e+05
    7.4087800458e-03    1.1690916406e+05
    7.4282912537e-03    1.1665619531e+05
    7.4477996677e-03    1.1639852344e+05
    7.4673094787e-03    1.1613322656e+05
    7.4868267402e-03    1.1585618750e+05
    7.5063589029e-03    1.1557524219e+05
    7.5258887373e-03    1.1528152344e+05
    7.5454111211e-03    1.1498540625e+05
    7.5649353676e-03    1.1468366406e+05
    7.5844703242e-03    1.1437353125e+05
    7.6040057465e-03    1.1405208594e+05
    7.6235276647e-03    1.1372652344e+05
    7.6430505142e-03    1.1339752344e+05
    7.6625877991e-03    1.1305961719e+05
    7.6821087860e-03    1.1272164844e+05
    7.7016241848e-03    1.1238590625e+05
    7.7211544849e-03    1.1204894531e+05
    7.7406810597e-03    1.1171539844e+05
    7.7602043748e-03    1.1138110156e+05
    7.7797495760e-03    1.1105711719e+05
    7.7992938459e-03    1.1073818750e+05
    7.8188432381e-03    1.1042936719e+05
    7.8384252265e-03    1.1013322656e+05
    7.8580006957e-03    1.0984452344e+05
    7.8775910661e-03    1.0957150000e+05
    7.8972103074e-03    1.0930297656e+05
    7.9168286175e-03    1.0904714844e+05
    7.9364804551e-03    1.0881136719e+05
    7.9561360180e-03    1.0858908594e+05
    7.9758102074e-03    1.0839303906e+05
    7.9955114052e-03    1.0821489844e+05
    8.0152126029e-03    1.0806800781e+05
    8.0349491909e-03    1.0794178906e+05
    8.0546662211e-03    1.0783775781e+05
    8.0743944272e-03    1.0776025781e+05
    8.0941170454e-03    1.0770389844e+05
    8.1138620153e-03    1.0766303125e+05
    8.1336386502e-03    1.0763660156e+05
    8.1534720957e-03    1.0762639844e+05
    8.1733558327e-03    1.0762693750e+05
    8.1932730973e-03    1.0763733594e+05
    8.2132071257e-03    1.0765672656e+05
    8.2330890000e-03    1.0767813281e+05
    8.2529615611e-03    1.0770317969e+05
    8.2727763802e-03    1.0773146094e+05
    8.2926023751e-03    1.0776044531e+05
    8.3124246448e-03    1.0778747656e+05
    8.3322748542e-03    1.0781206250e+05
    8.3521194756e-03    1.0783347656e+05
    8.3719678223e-03    1.0785657031e+05
    8.3917891607e-03    1.0788330469e+05
    8.4116021171e-03    1.0790397656e+05
    8.4314141423e-03    1.0792490625e+05
    8.4512168542e-03    1.0793603906e+05
    8.4710381925e-03    1.0794380469e+05
    8.4908353165e-03    1.0794237500e+05
    8.5106678307e-03    1.0794321875e+05
    8.5304882377e-03    1.0793353906e+05
    8.5503393784e-03    1.0792316406e+05
    8.5699046031e-03    1.0790453125e+05
    8.5892248899e-03    1.0788053906e+05
    8.6083402857e-03    1.0785475000e+05
    8.6272666231e-03    1.0782428906e+05
    8.6460309103e-03    1.0779253906e+05
    8.6646731943e-03    1.0775849219e+05
    8.6832325906e-03    1.0772233594e+05
    8.7017398328e-03    1.0768686719e+05
    8.7202098221e-03    1.0765560156e+05
    8.7386453524e-03    1.0762353906e+05
    8.7570473552e-03    1.0760096875e+05
    8.7753897533e-03    1.0757887500e+05
    8.7936492637e-03    1.0756247656e+05
    8.8118780404e-03    1.0755252344e+05
    8.8300397620e-03    1.0754134375e+05
    8.8481390849e-03    1.0753152344e+05
    8.8662039489e-03    1.0751747656e+05
    8.8842641562e-03    1.0750690625e+05
    8.9023411274e-03    1.0749439844e+05
    8.9204348624e-03    1.0748552344e+05
    8.9385388419e-03    1.0748210156e+05
    8.9566456154e-03    1.0747953906e+05
    8.9747514576e-03    1.0747552344e+05
    8.9928600937e-03    1.0747677344e+05
    9.0109808370e-03    1.0747127344e+05
    9.0291155502e-03    1.0746761719e+05
    9.0472688898e-03    1.0746115625e+05
    9.0654399246e-03    1.0745636719e+05
    9.0836230665e-03    1.0744828906e+05
    9.1018192470e-03    1.0744177344e+05
    9.1200266033e-03    1.0743418750e+05
    9.1382460669e-03    1.0742046094e+05
    9.1564757749e-03    1.0740496094e+05
    9.1747231781e-03    1.0737965625e+05
    9.1929892078e-03    1.0735602344e+05
    9.2112747952e-03    1.0731910156e+05
    9.2295790091e-03    1.0727413281e+05
    9.2479009181e-03    1.0722402344e+05
    9.2662386596e-03    1.0716377344e+05
    9.2845931649e-03    1.0710489844e+05
    9.3029672280e-03    1.0703928906e+05
    9.3213599175e-03    1.0697246094e+05
    9.3397712335e-03    1.0690550781e+05
    9.3582011759e-03    1.0683377344e+05
    9.3766497448e-03    1.0675663281e+05
    9.3951150775e-03    1.0668140625e+05
    9.4135999680e-03    1.0660734375e+05
    9.4321016222e-03    1.0653553125e+05
    9.4506228343e-03    1.0646291406e+05
    9.4691645354e-03    1.0639353125e+05
    9.4877239317e-03    1.0632615625e+05
    9.5063010231e-03    1.0626355469e+05
    9.5248948783e-03    1.0619907031e+05
    9.5435054973e-03    1.0613930469e+05
    9.5621328801e-03    1.0608236719e+05
    9.5807760954e-03    1.0602099219e+05
    9.5994332805e-03    1.0596743750e+05
    9.6181081608e-03    1.0591408594e+05
    9.6367979422e-03    1.0586628906e+05
    9.6555035561e-03    1.0581383594e+05
    9.6742231399e-03    1.0576955469e+05
    9.6929576248e-03    1.0573127344e+05
    9.7117051482e-03    1.0569188281e+05
    9.7304685041e-03    1.0564637500e+05
    9.7492448986e-03    1.0559919531e+05
    9.7680361941e-03    1.0554912500e+05
    9.7868405282e-03    1.0549108594e+05
    9.8056588322e-03    1.0543691406e+05
    9.8244920373e-03    1.0537489844e+05
    9.8433364183e-03    1.0532133594e+05
    9.8621929064e-03    1.0526518750e+05
    9.8810633644e-03    1.0520839844e+05
    9.8999459296e-03    1.0515016406e+05
    9.9188406020e-03    1.0509075000e+05
    9.9377483130e-03    1.0502341406e+05
    9.9566690624e-03    1.0495434375e+05
    9.9756028503e-03    1.0488352344e+05
    9.9945487455e-03    1.0481091406e+05
    1.0013507679e-02    1.0473247656e+05
    1.0032479651e-02    1.0465736719e+05
    1.0051463731e-02    1.0457746094e+05
    1.0070459917e-02    1.0449566406e+05
    1.0089469142e-02    1.0441849219e+05
    1.0108492337e-02    1.0433152344e+05
    1.0127528571e-02    1.0424402344e+05
    1.0146577843e-02    1.0415684375e+05
    1.0165639222e-02    1.0407162500e+05
    1.0184712708e-02    1.0398628906e+05
    1.0203798302e-02    1.0389419531e+05
    1.0222896002e-02    1.0380567969e+05
    1.0242006741e-02    1.0371800781e+05
    1.0261129588e-02    1.0363741406e+05
    1.0280264542e-02    1.0356196094e+05
    1.0299413465e-02    1.0349472656e+05
    1.0318575427e-02    1.0344313281e+05
    1.0337748565e-02    1.0339903125e+05
    1.0356934741e-02    1.0336717969e+05
    1.0376133956e-02    1.0333953125e+05
    1.0395346209e-02    1.0333440625e+05
    1.0414571501e-02    1.0332927344e+05
    1.0433809832e-02    1.0333775000e+05
    1.0453061201e-02    1.0334467969e+05
    1.0472324677e-02    1.0333806250e+05
    1.0491601191e-02    1.0332434375e+05
    1.0510892607e-02    1.0330839844e+05
    1.0530196130e-02    1.0327903906e+05
    1.0549513623e-02    1.0324825781e+05
    1.0568842292e-02    1.0320625781e+05
    1.0588183999e-02    1.0315682031e+05
    1.0607538745e-02    1.0310617969e+05
    1.0626907460e-02    1.0306083594e+05
    1.0646289214e-02    1.0301121094e+05
    1.0665684007e-02    1.0296367969e+05
    1.0685092770e-02    1.0292217969e+05
    1.0704516433e-02    1.0288822656e+05
    1.0723951273e-02    1.0285239844e+05
    1.0743400082e-02    1.0282311719e+05
    1.0762862861e-02    1.0280232031e+05
    1.0782338679e-02    1.0279360156e+05
    1.0801829398e-02    1.0277882031e+05
    1.0821334086e-02    1.0276133594e+05
    1.0840852745e-02    1.0274608594e+05
    1.0860386305e-02    1.0272712500e+05
    1.0879932903e-02    1.0271121094e+05
    1.0899493471e-02    1.0269085156e+05
    1.0919069871e-02    1.0267793750e+05
    1.0938662104e-02    1.0266421094e+05
    1.0958270170e-02    1.0265250781e+05
    1.0977892205e-02    1.0264489844e+05
    1.0997531936e-02    1.0263772656e+05
    1.1017187499e-02    1.0263050781e+05
    1.1036860757e-02    1.0262382031e+05
    1.1056551710e-02    1.0261274219e+05
    1.1076259427e-02    1.0260053125e+05
    1.1095987633e-02    1.0257864844e+05
    1.1115733534e-02    1.0255742969e+05
    1.1135498993e-02    1.0253971094e+05
    1.1155283079e-02    1.0252221094e+05
    1.1175086722e-02    1.0250024219e+05
    1.1194912717e-02    1.0248371094e+05
    1.1214758269e-02    1.0247064844e+05
    1.1234625243e-02    1.0245785156e+05
    1.1254511774e-02    1.0244271094e+05
    1.1274418794e-02    1.0241830469e+05
    1.1294347234e-02    1.0240291406e+05
    1.1314296164e-02    1.0237771094e+05
    1.1334266514e-02    1.0236116406e+05
    1.1354257353e-02    1.0233452344e+05
    1.1374268681e-02    1.0230725000e+05
    1.1394302361e-02    1.0228833594e+05
    1.1414355598e-02    1.0225874219e+05
    1.1434430256e-02    1.0222377344e+05
    1.1454525404e-02    1.0218580469e+05
    1.1474640109e-02    1.0213738281e+05
    1.1494777165e-02    1.0209132031e+05
    1.1514934711e-02    1.0204267969e+05
    1.1535113677e-02    1.0200225000e+05
    1.1555313133e-02    1.0197058594e+05
    1.1575534008e-02    1.0195430469e+05
    1.1595774442e-02    1.0196558594e+05
    1.1616035365e-02    1.0202610156e+05
    1.1636316776e-02    1.0213860156e+05
    1.1656619608e-02    1.0231646094e+05
    1.1676942930e-02    1.0259122656e+05
    1.1697287671e-02    1.0297571094e+05
    1.1717652902e-02    1.0349467969e+05
    1.1738038622e-02    1.0416164844e+05
    1.1758443899e-02    1.0499014844e+05
    1.1778870597e-02    1.0596712500e+05
    1.1799318716e-02    1.0706746094e+05
    1.1819788255e-02    1.0823780469e+05
    1.1840280145e-02    1.0939860156e+05
    1.1860790662e-02    1.1046735156e+05
    1.1881321669e-02    1.1136022656e+05
    1.1901874095e-02    1.1201175781e+05
    1.1922447011e-02    1.1239011719e+05
    1.1943042278e-02    1.1247794531e+05
    1.1963658035e-02    1.1231214844e+05
    1.1984295212e-02    1.1192302344e+05
    1.2004952878e-02    1.1136832031e+05
    1.2025631964e-02    1.1071042969e+05
    1.2046331540e-02    1.0999622656e+05
    1.2067052536e-02    1.0927721094e+05
    1.2087795883e-02    1.0860503125e+05
    1.2108558789e-02    1.0800516406e+05
    1.2129344046e-02    1.0749356250e+05
    1.2150149792e-02    1.0707583594e+05
    1.2170976959e-02    1.0672041406e+05
    1.2191825546e-02    1.0638981250e+05
    1.2212695554e-02    1.0606061719e+05
    1.2233586982e-02    1.0569130469e+05
    1.2254500762e-02    1.0526713281e+05
    1.2275436893e-02    1.0479696875e+05
    1.2296394445e-02    1.0427794531e+05
    1.2317374349e-02    1.0373453906e+05
    1.2338375673e-02    1.0317907031e+05
    1.2359398417e-02    1.0264046094e+05
    1.2380442582e-02    1.0212512500e+05
    1.2401508167e-02    1.0165658594e+05
    1.2422595173e-02    1.0124703125e+05
    1.2443703599e-02    1.0089046875e+05
    1.2464834377e-02    1.0059187500e+05
    1.2485986575e-02    1.0033227344e+05
    1.2507158332e-02    1.0010325000e+05
    1.2528351508e-02    9.9895929688e+04
    1.2549565174e-02    9.9703351562e+04
    1.2570801191e-02    9.9527273438e+04
    1.2592058629e-02    9.9366726562e+04
    1.2613337487e-02    9.9222039062e+04
    1.2634636834e-02    9.9095351562e+04
    1.2655957602e-02    9.8992218750e+04
    1.2677297927e-02    9.8908492188e+04
    1.2698660605e-02    9.8847351562e+04
    1.2720043771e-02    9.8812562500e+04
    1.2741449289e-02    9.8798585938e+04
    1.2762876227e-02    9.8804875000e+04
    1.2784325518e-02    9.8821218750e+04
    1.2805794366e-02    9.8837250000e+04
    1.2827285565e-02    9.8846273438e+04
    1.2848797254e-02    9.8834007812e+04
    1.2870330364e-02    9.8801539062e+04
    1.2891885825e-02    9.8751101562e+04
    1.2913462706e-02    9.8679898438e+04
    1.2935061008e-02    9.8600867188e+04
    1.2956679799e-02    9.8522882812e+04
    1.2978320010e-02    9.8462210938e+04
    1.2999981642e-02    9.8424968750e+04
    1.3021663763e-02    9.8422070312e+04
    1.3043368235e-02    9.8459179688e+04
    1.3065092266e-02    9.8530148438e+04
    1.3086837716e-02    9.8625437500e+04
    1.3108605519e-02    9.8735554688e+04
    1.3130392879e-02    9.8843382812e+04
    1.3152201660e-02    9.8938562500e+04
    1.3174032792e-02    9.9018156250e+04
    1.3195885345e-02    9.9082218750e+04
    1.3217759319e-02    9.9123117188e+04
    1.3239653781e-02    9.9152843750e+04
    1.3261569664e-02    9.9175164062e+04
    1.3283506967e-02    9.9198039062e+04
    1.3305463828e-02    9.9226101562e+04
    1.3327440247e-02    9.9267101562e+04
    1.3349435292e-02    9.9325593750e+04
    1.3371448033e-02    9.9395804688e+04
    1.3393475674e-02    9.9480164062e+04
    1.3415516354e-02    9.9560781250e+04
    1.3437564485e-02    9.9643648438e+04
    1.3459613547e-02    9.9727460938e+04
    1.3481658883e-02    9.9816914062e+04
    1.3503690250e-02    9.9905929688e+04
    1.3525702059e-02    9.9993914062e+04
    1.3547683135e-02    1.0008593750e+05
    1.3569628820e-02    1.0018272656e+05
    1.3591531664e-02    1.0027838281e+05
    1.3613392599e-02    1.0037807031e+05
    1.3635210693e-02    1.0048603125e+05
    1.3656994328e-02    1.0059850781e+05
    1.3678749092e-02    1.0071386719e+05
    1.3700488023e-02    1.0083362500e+05
    1.3722228818e-02    1.0094713281e+05
    1.3743981719e-02    1.0105758594e+05
    1.3765762560e-02    1.0115937500e+05
    1.3787578791e-02    1.0125896875e+05
    1.3809437864e-02    1.0135182031e+05
    1.3831341639e-02    1.0143172656e+05
    1.3853288256e-02    1.0150246875e+05
    1.3875273056e-02    1.0155956250e+05
    1.3897285797e-02    1.0160488281e+05
    1.3919321820e-02    1.0163853125e+05
    1.3941374607e-02    1.0165591406e+05
    1.3963440433e-02    1.0166839844e+05
    1.3985517435e-02    1.0167075000e+05
    1.4007603750e-02    1.0166089844e+05
    1.4029704034e-02    1.0164347656e+05
    1.4051820152e-02    1.0162750000e+05
    1.4073957689e-02    1.0159725781e+05
    1.4096121304e-02    1.0156330469e+05
    1.4118315652e-02    1.0152453906e+05
    1.4140545391e-02    1.0148469531e+05
    1.4162814245e-02    1.0144627344e+05
    1.4185124077e-02    1.0139875781e+05
    1.4207473956e-02    1.0135344531e+05
    1.4229862019e-02    1.0129822656e+05
    1.4252286404e-02    1.0124405469e+05
    1.4274741523e-02    1.0119497656e+05
    1.4297228307e-02    1.0113412500e+05
    1.4319745824e-02    1.0108782031e+05
    1.4342290349e-02    1.0102977344e+05
    1.4364863746e-02    1.0096816406e+05
    1.4387467876e-02    1.0090577344e+05
    1.4410103671e-02    1.0084416406e+05
    1.4432771131e-02    1.0079194531e+05
    1.4455472119e-02    1.0073286719e+05
    1.4478209428e-02    1.0068658594e+05
    1.4500979334e-02    1.0064418750e+05
    1.4523783699e-02    1.0060650781e+05
    1.4546621591e-02    1.0056819531e+05
    1.4569494873e-02    1.0053796875e+05
    1.4592399821e-02    1.0051214844e+05
    1.4615339227e-02    1.0049503125e+05
    1.4638305642e-02    1.0047872656e+05
    1.4661304653e-02    1.0047008594e+05
    1.4684336260e-02    1.0046044531e+05
    1.4707398601e-02    1.0045885156e+05
    1.4730494469e-02    1.0046768750e+05
    1.4753622934e-02    1.0047375781e+05
    1.4776783995e-02    1.0048428906e+05
    1.4799979515e-02    1.0049988281e+05
    1.4823205769e-02    1.0052758594e+05
    1.4846466482e-02    1.0055616406e+05
    1.4869757928e-02    1.0059555469e+05
    1.4893081971e-02    1.0063821875e+05
    1.4916437678e-02    1.0068536719e+05
    1.4939822257e-02    1.0074116406e+05
    1.4963239431e-02    1.0079042969e+05
    1.4986685477e-02    1.0084711719e+05
    1.5010161325e-02    1.0089496094e+05
    1.5033668838e-02    1.0094275000e+05
    1.5057205223e-02    1.0097671094e+05
    1.5080772340e-02    1.0100138281e+05
    1.5104367398e-02    1.0101899219e+05
    1.5127992257e-02    1.0102756250e+05
    1.5151646920e-02    1.0102825781e+05
    1.5175330453e-02    1.0102688281e+05
    1.5199041925e-02    1.0101681250e+05
    1.5222782269e-02    1.0100672656e+05
    1.5246548690e-02    1.0099794531e+05
    1.5270343982e-02    1.0098511719e+05
    1.5294168144e-02    1.0097580469e+05
    1.5318016522e-02    1.0097565625e+05
    1.5341891907e-02    1.0097325000e+05
    1.5365792438e-02    1.0098011719e+05
    1.5389721841e-02    1.0098446875e+05
    1.5413676389e-02    1.0099452344e+05
    1.5437657945e-02    1.0100553125e+05
    1.5461664647e-02    1.0101661719e+05
    1.5485695563e-02    1.0102996875e+05
    1.5509752557e-02    1.0104821094e+05
    1.5533835627e-02    1.0106364844e+05
    1.5557944775e-02    1.0108021094e+05
    1.5582079068e-02    1.0109614844e+05
    1.5606240369e-02    1.0110796875e+05
    1.5630424023e-02    1.0112038281e+05
    1.5654634684e-02    1.0113741406e+05
    1.5678871423e-02    1.0116437500e+05
    1.5703132376e-02    1.0118314844e+05
    1.5727419406e-02    1.0119399219e+05
    1.5751728788e-02    1.0122234375e+05
    1.5776060522e-02    1.0123743750e+05
    1.5800418332e-02    1.0126039844e+05
    1.5824800357e-02    1.0128411719e+05
    1.5849204734e-02    1.0130878125e+05
    1.5873633325e-02    1.0132464844e+05
    1.5898084268e-02    1.0134133594e+05
    1.5922557563e-02    1.0135756250e+05
    1.5947058797e-02    1.0137463281e+05
    1.5971582383e-02    1.0138946094e+05
    1.5996130183e-02    1.0140747656e+05
    1.6020702198e-02    1.0142490625e+05
    1.6045298427e-02    1.0143957031e+05
    1.6069920734e-02    1.0145202344e+05
    1.6094569117e-02    1.0146141406e+05
    1.6119243577e-02    1.0147099219e+05
    1.6143942252e-02    1.0148230469e+05
    1.6168667004e-02    1.0148752344e+05
    1.6193419695e-02    1.0149100781e+05
    1.6218200326e-02    1.0149083594e+05
    1.6243007034e-02    1.0148943750e+05
    1.6267839819e-02    1.0149341406e+05
    1.6292702407e-02    1.0149243750e+05
    1.6317596659e-02    1.0149033594e+05
    1.6342513263e-02    1.0149257031e+05
    1.6367461532e-02    1.0149900000e+05
    1.6392435879e-02    1.0151521094e+05
    1.6417443752e-02    1.0152752344e+05
    1.6442479566e-02    1.0154531250e+05
    1.6467543319e-02    1.0156419531e+05
    1.6492636874e-02    1.0157675000e+05
    1.6517756507e-02    1.0160336719e+05
    1.6542907804e-02    1.0162491406e+05
    1.6568088904e-02    1.0164808594e+05
    1.6593271866e-02    1.0167260156e+05
    1.6618426889e-02    1.0169814844e+05
    1.6643559560e-02    1.0172533594e+05
    1.6668669879e-02    1.0174410156e+05
    1.6693757847e-02    1.0176264844e+05
    1.6718825325e-02    1.0177503125e+05
    1.6743874177e-02    1.0179003906e+05
    1.6768900678e-02    1.0180553125e+05
    1.6793908551e-02    1.0182321094e+05
    1.6818899661e-02    1.0184402344e+05
    1.6843874007e-02    1.0185521875e+05
    1.6868829727e-02    1.0186083594e+05
    1.6893770546e-02    1.0186809375e+05
    1.6918692738e-02    1.0187288281e+05
    1.6943598166e-02    1.0187397656e+05
    1.6968490556e-02    1.0187378906e+05
    1.6993366182e-02    1.0187296875e+05
    1.7018226907e-02    1.0186008594e+05
    1.7043072730e-02    1.0185403125e+05
    1.7067901790e-02    1.0184597656e+05
    1.7092714086e-02    1.0184192969e+05
    1.7117511481e-02    1.0183527344e+05
    1.7142292112e-02    1.0183263281e+05
    1.7167057842e-02    1.0182016406e+05
    1.7191808671e-02    1.0181603125e+05
    1.7216544598e-02    1.0181171094e+05
    1.7241263762e-02    1.0181027344e+05
    1.7265968025e-02    1.0181492969e+05
    1.7290659249e-02    1.0182225781e+05
    1.7315333709e-02    1.0182115625e+05
    1.7339993268e-02    1.0182033594e+05
    1.7364639789e-02    1.0181982031e+05
    1.7389267683e-02    1.0182903906e+05
    1.7413880676e-02    1.0183883594e+05
    1.7438478768e-02    1.0184918750e+05
    1.7463061959e-02    1.0186711719e+05
    1.7487626523e-02    1.0188355469e+05
    1.7512176186e-02    1.0190853906e+05
    1.7536709085e-02    1.0194658594e+05
    1.7561223358e-02    1.0199230469e+05
    1.7585720867e-02    1.0205325000e+05
    1.7610201612e-02    1.0213896875e+05
    1.7634663731e-02    1.0223659375e+05
    1.7659107223e-02    1.0235737500e+05
    1.7683532089e-02    1.0249364844e+05
    1.7707940191e-02    1.0263528906e+05
    1.7732329667e-02    1.0278256250e+05
    1.7756698653e-02    1.0292285156e+05
    1.7781050876e-02    1.0305955469e+05
    1.7805384472e-02    1.0317108594e+05
    1.7829699442e-02    1.0326468750e+05
    1.7853999510e-02    1.0331765625e+05
    1.7878280953e-02    1.0333347656e+05
    1.7902545631e-02    1.0331075000e+05
    1.7926793545e-02    1.0323915625e+05
    1.7951028422e-02    1.0312519531e+05
    1.7975246534e-02    1.0296453125e+05
    1.7999447882e-02    1.0276146094e+05
    1.8023636192e-02    1.0251737500e+05
    1.8047811463e-02    1.0224788281e+05
    1.8071975559e-02    1.0196428906e+05
    1.8096126616e-02    1.0168436719e+05
    1.8120266497e-02    1.0141764844e+05
    1.8144397065e-02    1.0118306250e+05
    1.8168520182e-02    1.0097271875e+05
    1.8192630261e-02    1.0079527344e+05
    1.8216732889e-02    1.0065017969e+05
    1.8240824342e-02    1.0053322656e+05
    1.8264908344e-02    1.0045375000e+05
    1.8288983032e-02    1.0039787500e+05
    1.8313048407e-02    1.0037496875e+05
    1.8337102607e-02    1.0037064844e+05
    1.8361147493e-02    1.0038972656e+05
    1.8385183066e-02    1.0043437500e+05
    1.8409207463e-02    1.0049321094e+05
    1.8433224410e-02    1.0056058594e+05
    1.8457230181e-02    1.0064171094e+05
    1.8481226638e-02    1.0072014844e+05
    1.8505210057e-02    1.0080910156e+05
    1.8529184163e-02    1.0089742969e+05
    1.8553148955e-02    1.0098734375e+05
    1.8577100709e-02    1.0106896875e+05
    1.8601041287e-02    1.0115071094e+05
    1.8624972552e-02    1.0122091406e+05
    1.8648892641e-02    1.0128597656e+05
    1.8672801554e-02    1.0134347656e+05
    1.8696699291e-02    1.0139752344e+05
    1.8720587716e-02    1.0144777344e+05
    1.8744463101e-02    1.0149058594e+05
    1.8768329173e-02    1.0153238281e+05
    1.8792184070e-02    1.0157993750e+05
    1.8816027790e-02    1.0163455469e+05
    1.8839860335e-02    1.0169028906e+05
    1.8863683566e-02    1.0176333594e+05
    1.8887493759e-02    1.0183747656e+05
    1.8911294639e-02    1.0191506250e+05
    1.8935086206e-02    1.0200397656e+05
    1.8958866596e-02    1.0209535156e+05
    1.8982635811e-02    1.0218533594e+05
    1.9006397575e-02    1.0227384375e+05
    1.9030146301e-02    1.0235928906e+05
    1.9053885713e-02    1.0244055469e+05
    1.9077615812e-02    1.0252372656e+05
    1.9101334736e-02    1.0259383594e+05
    1.9125042483e-02    1.0266367969e+05
    1.9148740917e-02    1.0272375781e+05
    1.9172428176e-02    1.0278716406e+05
    1.9196104258e-02    1.0284071875e+05
    1.9219771028e-02    1.0288364844e+05
    1.9243424758e-02    1.0291510156e+05
    1.9267069176e-02    1.0294246094e+05
    1.9290700555e-02    1.0295569531e+05
    1.9314322621e-02    1.0295958594e+05
    1.9337931648e-02    1.0295266406e+05
    1.9361529499e-02    1.0294472656e+05
    1.9385114312e-02    1.0293228125e+05
    1.9408687949e-02    1.0290962500e+05
    1.9432250410e-02    1.0288097656e+05
    1.9455801696e-02    1.0284710156e+05
    1.9479339942e-02    1.0281971094e+05
    1.9502865151e-02    1.0278825781e+05
    1.9526379183e-02    1.0275552344e+05
    1.9549878314e-02    1.0272002344e+05
    1.9573366269e-02    1.0269477344e+05
    1.9596841186e-02    1.0266677344e+05
    1.9620303065e-02    1.0263699219e+05
    1.9643751904e-02    1.0260930469e+05
    1.9667187706e-02    1.0257617969e+05
    1.9690606743e-02    1.0255166406e+05
    1.9714014605e-02    1.0252700000e+05
    1.9737409428e-02    1.0251144531e+05
    1.9760791212e-02    1.0248614844e+05
    1.9784159958e-02    1.0246900781e+05
    1.9807513803e-02    1.0245003906e+05
    1.9830854610e-02    1.0242538281e+05
    1.9854182377e-02    1.0240783594e+05
    1.9877497107e-02    1.0238982031e+05
    1.9900798798e-02    1.0237183594e+05
    1.9924087450e-02    1.0235589844e+05
    1.9947361201e-02    1.0234564844e+05
    1.9970623776e-02    1.0232414844e+05
    1.9993871450e-02    1.0230375781e+05
    2.0017107949e-02    1.0229266406e+05
    2.0040329546e-02    1.0227515625e+05
    2.0063538104e-02    1.0225827344e+05
    2.0086731762e-02    1.0225071875e+05
    2.0109914243e-02    1.0223413281e+05
    2.0133081824e-02    1.0221691406e+05
    2.0156236365e-02    1.0219959375e+05
    2.0179376006e-02    1.0218213281e+05
    2.0202504471e-02    1.0216719531e+05
    2.0225618035e-02    1.0214786719e+05
    2.0248720422e-02    1.0213096094e+05
    2.0271807909e-02    1.0211317969e+05
    2.0294882357e-02    1.0209115625e+05
    2.0317947492e-02    1.0206819531e+05
    2.0340997726e-02    1.0205505469e+05
    2.0364036784e-02    1.0204339844e+05
    2.0387060940e-02    1.0202705469e+05
    2.0410073921e-02    1.0201403906e+05
    2.0433073863e-02    1.0200640625e+05
    2.0456060767e-02    1.0200210156e+05
    2.0479036495e-02    1.0199383594e+05
    2.0501999184e-02    1.0198749219e+05
    2.0524948835e-02    1.0197703906e+05
    2.0547885448e-02    1.0197647656e+05
    2.0570809022e-02    1.0197703906e+05
    2.0593719557e-02    1.0197897656e+05
    2.0616617054e-02    1.0197892969e+05
    2.0639499649e-02    1.0197925000e+05
    2.0662369207e-02    1.0197874219e+05
    2.0685223863e-02    1.0197767969e+05
    2.0708063617e-02    1.0197910156e+05
    2.0730890334e-02    1.0198477344e+05
    2.0753700286e-02    1.0198378125e+05
    2.0776495337e-02    1.0198839844e+05
    2.0799275488e-02    1.0199283594e+05
    2.0822042599e-02    1.0199341406e+05
    2.0844791085e-02    1.0199491406e+05
    2.0867524669e-02    1.0199172656e+05
    2.0890241489e-02    1.0198796094e+05
    2.0912945271e-02    1.0198317969e+05
    2.0935632288e-02    1.0198203906e+05
    2.0958306268e-02    1.0197933594e+05
    2.0980965346e-02    1.0196544531e+05
    2.1003607661e-02    1.0195188281e+05
    2.1026238799e-02    1.0193728125e+05
    2.1048855036e-02    1.0192040625e+05
    2.1071458235e-02    1.0190318750e+05
    2.1094048396e-02    1.0189035156e+05
    2.1116625518e-02    1.0187175000e+05
    2.1139191464e-02    1.0185316406e+05
    2.1161744371e-02    1.0183322656e+05
    2.1184286103e-02    1.0181352344e+05
    2.1206818521e-02    1.0179821094e+05
    2.1229337901e-02    1.0178412500e+05
    2.1251846105e-02    1.0177121094e+05
    2.1274344996e-02    1.0176494531e+05
    2.1296832711e-02    1.0175527344e+05
    2.1319312975e-02    1.0174810156e+05
    2.1341778338e-02    1.0174853906e+05
    2.1364232525e-02    1.0176132031e+05
    2.1386675537e-02    1.0177300000e+05
    2.1409107372e-02    1.0178844531e+05
    2.1431528032e-02    1.0181271875e+05
    2.1453931928e-02    1.0183757031e+05
    2.1476324648e-02    1.0186572656e+05
    2.1498700604e-02    1.0189958594e+05
    2.1521063522e-02    1.0193050781e+05
    2.1543409675e-02    1.0196409375e+05
    2.1565740928e-02    1.0200418750e+05
    2.1588053554e-02    1.0204675781e+05
    2.1610351279e-02    1.0208959375e+05
    2.1632634103e-02    1.0212427344e+05
    2.1654898301e-02    1.0216418750e+05
    2.1677147597e-02    1.0220171094e+05
    2.1699378267e-02    1.0223344531e+05
    2.1721594036e-02    1.0226621094e+05
    2.1743793041e-02    1.0229925000e+05
    2.1765975282e-02    1.0233017969e+05
    2.1788140759e-02    1.0235075781e+05
    2.1810289472e-02    1.0237466406e+05
    2.1832419559e-02    1.0238713281e+05
    2.1854531020e-02    1.0239677344e+05
    2.1876627579e-02    1.0241364844e+05
    2.1898705512e-02    1.0241810156e+05
    2.1920768544e-02    1.0242103125e+05
    2.1942811087e-02    1.0241853125e+05
    2.1964838728e-02    1.0241414844e+05
    2.1986849606e-02    1.0240944531e+05
    2.2008845583e-02    1.0239293750e+05
    2.2030822933e-02    1.0238307031e+05
    2.2052785382e-02    1.0237060156e+05
    2.2074732929e-02    1.0235584375e+05
    2.2096665576e-02    1.0233496875e+05
    2.2118583322e-02    1.0231521094e+05
    2.2140489891e-02    1.0228791406e+05
    2.2162377834e-02    1.0225402344e+05
    2.2184254602e-02    1.0222746875e+05
    2.2206118330e-02    1.0219955469e+05
    2.2227969021e-02    1.0217639844e+05
    2.2249806672e-02    1.0215236719e+05
    2.2271629423e-02    1.0212903125e+05
    2.2293440998e-02    1.0210809375e+05
    2.2315241396e-02    1.0208183594e+05
    2.2337028757e-02    1.0206333594e+05
    2.2358803079e-02    1.0204539844e+05
    2.2380566224e-02    1.0203342969e+05
    2.2402318195e-02    1.0201834375e+05
    2.2424057126e-02    1.0200778125e+05
    2.2445784882e-02    1.0200340625e+05
    2.2467501462e-02    1.0199613281e+05
    2.2489206865e-02    1.0199458594e+05
    2.2510899231e-02    1.0199308594e+05
    2.2532582283e-02    1.0199780469e+05
    2.2554252297e-02    1.0200384375e+05
    2.2575911134e-02    1.0201093750e+05
    2.2597560659e-02    1.0201059375e+05
    2.2619199008e-02    1.0202064844e+05
    2.2640828043e-02    1.0202175781e+05
    2.2662445903e-02    1.0202343750e+05
    2.2684050724e-02    1.0203486719e+05
    2.2705646232e-02    1.0204035156e+05
    2.2727232426e-02    1.0205103906e+05
    2.2748809308e-02    1.0205928906e+05
    2.2770375013e-02    1.0206830469e+05
    2.2791929543e-02    1.0206722656e+05
    2.2813472897e-02    1.0207052344e+05
    2.2835006937e-02    1.0207360156e+05
    2.2856531665e-02    1.0207607031e+05
    2.2878047079e-02    1.0207725000e+05
    2.2899549454e-02    1.0207802344e+05
    2.2921044379e-02    1.0207814844e+05
    2.2942528129e-02    1.0206863281e+05
    2.2964000702e-02    1.0206521094e+05
    2.2985465825e-02    1.0206143750e+05
    2.3006917909e-02    1.0205749219e+05
    2.3028360680e-02    1.0206000781e+05
    2.3049792275e-02    1.0205316406e+05
    2.3071214557e-02    1.0204978906e+05
    2.3092625663e-02    1.0205166406e+05
    2.3114029318e-02    1.0204939844e+05
    2.3135419935e-02    1.0205503906e+05
    2.3156799376e-02    1.0205571094e+05
    2.3178169504e-02    1.0206280469e+05
    2.3199530318e-02    1.0206527344e+05
    2.3220879957e-02    1.0207086719e+05
    2.3242218420e-02    1.0208149219e+05
    2.3263547570e-02    1.0209580469e+05
    2.3284865543e-02    1.0210734375e+05
    2.3306174204e-02    1.0212387500e+05
    2.3327469826e-02    1.0213669531e+05
    2.3348756135e-02    1.0215507031e+05
    2.3370031267e-02    1.0216988281e+05
    2.3391297087e-02    1.0218896094e+05
    2.3412553594e-02    1.0220772656e+05
    2.3433798924e-02    1.0222800781e+05
    2.3455033079e-02    1.0224460156e+05
    2.3476256058e-02    1.0226638281e+05
    2.3497469723e-02    1.0228839844e+05
    2.3518672213e-02    1.0231063281e+05
    2.3539865389e-02    1.0232855469e+05
    2.3561049253e-02    1.0235231250e+05
    2.3582221940e-02    1.0237197656e+05
    2.3603385314e-02    1.0239575781e+05
    2.3624535650e-02    1.0241014844e+05
    2.3645676672e-02    1.0242960156e+05
    2.3666808382e-02    1.0244918750e+05
    2.3687927052e-02    1.0245853125e+05
    2.3709038273e-02    1.0247288281e+05
    2.3730138317e-02    1.0248283594e+05
    2.3751227185e-02    1.0249610156e+05
    2.3772306740e-02    1.0249975781e+05
    2.3793375120e-02    1.0250278906e+05
    2.3814432323e-02    1.0250481250e+05
    2.3835480213e-02    1.0249603906e+05
    2.3856516927e-02    1.0248966406e+05
    2.3877544329e-02    1.0247211719e+05
    2.3898560554e-02    1.0245663281e+05
    2.3919565603e-02    1.0243839844e+05
    2.3940561339e-02    1.0240809375e+05
    2.3961545900e-02    1.0237263281e+05
    2.3982519284e-02    1.0232886719e+05
    2.4003483355e-02    1.0228837500e+05
    2.4024436250e-02    1.0224383594e+05
    2.4045377970e-02    1.0219643750e+05
    2.4066310376e-02    1.0214647656e+05
    2.4087233469e-02    1.0210321094e+05
    2.4108145386e-02    1.0206322656e+05
    2.4129044265e-02    1.0202806250e+05
    2.4149935693e-02    1.0199328125e+05
    2.4170814082e-02    1.0197285156e+05
    2.4191683158e-02    1.0196032031e+05
    2.4212542921e-02    1.0195241406e+05
    2.4233391508e-02    1.0195853125e+05
    2.4254228920e-02    1.0196803906e+05
    2.4275057018e-02    1.0198136719e+05
    2.4295873940e-02    1.0200214844e+05
    2.4316681549e-02    1.0203156250e+05
    2.4337477982e-02    1.0206064844e+05
    2.4358265102e-02    1.0208831250e+05
    2.4379042909e-02    1.0211611719e+05
    2.4399809539e-02    1.0214235156e+05
    2.4420566857e-02    1.0216827344e+05
    2.4441312999e-02    1.0219578125e+05
    2.4462047964e-02    1.0221580469e+05
    2.4482775480e-02    1.0223686719e+05
    2.4503491819e-02    1.0225803906e+05
    2.4524198845e-02    1.0227547656e+05
    2.4544894695e-02    1.0229108594e+05
    2.4565581232e-02    1.0230746094e+05
    2.4586258456e-02    1.0232128125e+05
    2.4606924504e-02    1.0233471875e+05
    2.4627581239e-02    1.0235089844e+05
    2.4648228660e-02    1.0237247656e+05
    2.4668866768e-02    1.0238722656e+05
    2.4689495564e-02    1.0240209375e+05
    2.4710113183e-02    1.0241742969e+05
    2.4730721489e-02    1.0243267969e+05
    2.4751318619e-02    1.0244760156e+05
    2.4771906435e-02    1.0246737500e+05
    2.4792486802e-02    1.0248602344e+05
    2.4813055992e-02    1.0250436719e+05
    2.4833614007e-02    1.0251489844e+05
    2.4854162708e-02    1.0252522656e+05
    2.4874702096e-02    1.0252981250e+05
    2.4895232171e-02    1.0254341406e+05
    2.4915752932e-02    1.0254185156e+05
    2.4936262518e-02    1.0254159375e+05
    2.4956764653e-02    1.0253943750e+05
    2.4977253750e-02    1.0253791406e+05
    2.4997735396e-02    1.0253538281e+05
    2.5018205866e-02    1.0252715625e+05
    2.5038668886e-02    1.0251197656e+05
    2.5059120730e-02    1.0249483594e+05
    2.5079563260e-02    1.0248519531e+05
    2.5099996477e-02    1.0246928906e+05
    2.5120420381e-02    1.0245659375e+05
    2.5140833110e-02    1.0243834375e+05
    2.5161236525e-02    1.0242071094e+05
    2.5181630626e-02    1.0240482031e+05
    2.5202017277e-02    1.0239060156e+05
    2.5222390890e-02    1.0237727344e+05
    2.5242757052e-02    1.0235858594e+05
    2.5263112038e-02    1.0234012500e+05
    2.5283459574e-02    1.0233038281e+05
    2.5303795934e-02    1.0232071094e+05
    2.5324124843e-02    1.0231107031e+05
    2.5344440714e-02    1.0230142969e+05
    2.5364749134e-02    1.0229125000e+05
    2.5385048240e-02    1.0228183594e+05
    2.5405339897e-02    1.0227172656e+05
    2.5425618514e-02    1.0226202344e+05
    2.5445887819e-02    1.0226153906e+05
    2.5466147810e-02    1.0225205469e+05
    2.5486400351e-02    1.0224256250e+05
    2.5506639853e-02    1.0223322656e+05
    2.5526873767e-02    1.0223128125e+05
    2.5547094643e-02    1.0222571094e+05
    2.5567308068e-02    1.0221907031e+05
    2.5587510318e-02    1.0222203125e+05
    2.5607703254e-02    1.0221688281e+05
    2.5627886876e-02    1.0222107031e+05
    2.5648061186e-02    1.0221632031e+05
    2.5668226182e-02    1.0222077344e+05
    2.5688380003e-02    1.0221691406e+05
    2.5708526373e-02    1.0222278906e+05
    2.5728661567e-02    1.0221971875e+05
    2.5748789310e-02    1.0221644531e+05
    2.5768904015e-02    1.0221750781e+05
    2.5789011270e-02    1.0221441406e+05
    2.5809109211e-02    1.0221664844e+05
    2.5829195976e-02    1.0222360156e+05
    2.5849273428e-02    1.0222215625e+05
    2.5869343430e-02    1.0222822656e+05
    2.5889402255e-02    1.0222983594e+05
    2.5909451768e-02    1.0222885156e+05
    2.5929493830e-02    1.0222822656e+05
    2.5949522853e-02    1.0222757031e+05
    2.5969544426e-02    1.0222733594e+05
    2.5989556685e-02    1.0223150000e+05
    2.6009559631e-02    1.0223728125e+05
    2.6029553264e-02    1.0223878125e+05
    2.6049537584e-02    1.0224488281e+05
    2.6069512591e-02    1.0224599219e+05
    2.6089478284e-02    1.0224888281e+05
    2.6109432802e-02    1.0224971094e+05
    2.6129379869e-02    1.0225062500e+05
    2.6149315760e-02    1.0225436719e+05
    2.6169244200e-02    1.0225593750e+05
    2.6189163327e-02    1.0225792969e+05
    2.6209073141e-02    1.0226977344e+05
    2.6228975505e-02    1.0227246094e+05
    2.6248866692e-02    1.0227591406e+05
    2.6268748567e-02    1.0227912500e+05
    2.6288621128e-02    1.0228257031e+05
    2.6308484375e-02    1.0228562500e+05
    2.6328338310e-02    1.0228867969e+05
    2.6348184794e-02    1.0229142969e+05
    2.6368021965e-02    1.0229380469e+05
    2.6387847960e-02    1.0229603906e+05
    2.6407664642e-02    1.0229533594e+05
    2.6427472010e-02    1.0229725781e+05
    2.6447271928e-02    1.0229655469e+05
    2.6467062533e-02    1.0230327344e+05
    2.6486843824e-02    1.0229572656e+05
    2.6506617665e-02    1.0229721875e+05
    2.6526380330e-02    1.0230065625e+05
    2.6546133682e-02    1.0230253125e+05
    2.6565877721e-02    1.0230209375e+05
    2.6585612446e-02    1.0230352344e+05
    2.6605339721e-02    1.0230462500e+05
    2.6625057682e-02    1.0230557031e+05
    2.6644766331e-02    1.0230360156e+05
    2.6664465666e-02    1.0229697656e+05
    2.6684155688e-02    1.0229758594e+05
    2.6703836396e-02    1.0230085156e+05
    2.6723509654e-02    1.0230871875e+05
    2.6743173599e-02    1.0230552344e+05
    2.6762828231e-02    1.0230202344e+05
    2.6782475412e-02    1.0230314844e+05
    2.6802113280e-02    1.0231283594e+05
    2.6821739972e-02    1.0230392969e+05
    2.6841359213e-02    1.0230408594e+05
    2.6860967278e-02    1.0230671875e+05
    2.6880569756e-02    1.0231230469e+05
    2.6900164783e-02    1.0231153906e+05
    2.6919748634e-02    1.0231059375e+05
    2.6939325035e-02    1.0231588281e+05
    2.6958892122e-02    1.0231290625e+05
    2.6978449896e-02    1.0231221094e+05
    2.6997998357e-02    1.0232321094e+05
    2.7017539367e-02    1.0232221094e+05
    2.7037071064e-02    1.0232568750e+05
    2.7056595311e-02    1.0232399219e+05
    2.7076110244e-02    1.0232208594e+05
    2.7095617726e-02    1.0232791406e+05
    2.7115115896e-02    1.0232496094e+05
    2.7134604752e-02    1.0232989844e+05
    2.7154086158e-02    1.0233100781e+05
    2.7173558250e-02    1.0232732031e+05
    2.7193021029e-02    1.0233347656e+05
    2.7212476358e-02    1.0233449219e+05
    2.7231922373e-02    1.0233366406e+05
    2.7251357213e-02    1.0233503906e+05
    2.7270786464e-02    1.0232902344e+05
    2.7290204540e-02    1.0233924219e+05
    2.7309613302e-02    1.0234003906e+05
    2.7329014614e-02    1.0234052344e+05
    2.7348404750e-02    1.0233143750e+05
    2.7367785573e-02    1.0233888281e+05
    2.7387158945e-02    1.0234165625e+05
    2.7406521142e-02    1.0233503906e+05
    2.7425874025e-02    1.0233344531e+05
    2.7445219457e-02    1.0233835156e+05
    2.7464553714e-02    1.0234393750e+05
    2.7483878657e-02    1.0233507031e+05
    2.7503194287e-02    1.0233531250e+05
    2.7522502467e-02    1.0233746094e+05
    2.7541799471e-02    1.0233939844e+05
    2.7561087161e-02    1.0233516406e+05
    2.7580365539e-02    1.0233496875e+05
    2.7599634603e-02    1.0233710156e+05
    2.7618894354e-02    1.0233711719e+05
    2.7638144791e-02    1.0233494531e+05
    2.7657385916e-02    1.0233494531e+05
    2.7676619589e-02    1.0233446094e+05
    2.7695843950e-02    1.0233402344e+05
    2.7715058997e-02    1.0233374219e+05
    2.7734262869e-02    1.0233367969e+05
    2.7753459290e-02    1.0233363281e+05
    2.7772648260e-02    1.0233347656e+05
    2.7791827917e-02    1.0234308594e+05
    2.7810998261e-02    1.0234371094e+05
    2.7830159292e-02    1.0233535156e+05
    2.7849311009e-02    1.0233621094e+05
    2.7868455276e-02    1.0234390625e+05
    2.7887590230e-02    1.0234144531e+05
    2.7906717733e-02    1.0233736719e+05
    2.7925835922e-02    1.0234433594e+05
    2.7944946662e-02    1.0233746094e+05
    2.7964048088e-02    1.0233733594e+05
    2.7983140200e-02    1.0233719531e+05
    2.8002224863e-02    1.0234643750e+05
    2.8021300212e-02    1.0233959375e+05
    2.8040368110e-02    1.0233733594e+05
    2.8059426695e-02    1.0233696094e+05
    2.8078475967e-02    1.0233708594e+05
    2.8097519651e-02    1.0233725000e+05
    2.8116554022e-02    1.0233732031e+05
    2.8135580942e-02    1.0233741406e+05
    2.8154598549e-02    1.0233738281e+05
    2.8173606843e-02    1.0233712500e+05
    2.8192607686e-02    1.0233668750e+05
    2.8211599216e-02    1.0233610156e+05
    2.8230583295e-02    1.0233522656e+05
    2.8249559924e-02    1.0233492969e+05
    2.8268527240e-02    1.0234413281e+05
    2.8287487105e-02    1.0234427344e+05
    2.8306435794e-02    1.0234214844e+05
    2.8325378895e-02    1.0233490625e+05
    2.8344312683e-02    1.0233446094e+05
    2.8363237157e-02    1.0234102344e+05
    2.8382156044e-02    1.0234335156e+05
    2.8401065618e-02    1.0234322656e+05
    2.8419965878e-02    1.0234341406e+05
    2.8438858688e-02    1.0234386719e+05
    2.8457742184e-02    1.0233961719e+05
    2.8476616368e-02    1.0234003125e+05
    2.8495483100e-02    1.0234480469e+05
    2.8514338657e-02    1.0234472656e+05
    2.8533160686e-02    1.0234464844e+05
    2.8551930562e-02    1.0234455469e+05
    2.8570635244e-02    1.0234447656e+05
    2.8589271009e-02    1.0234443750e+05
    2.8607837856e-02    1.0234190625e+05
    2.8626350686e-02    1.0233731250e+05
    2.8644818813e-02    1.0233569531e+05
    2.8663259000e-02    1.0233832031e+05
    2.8681686148e-02    1.0234078906e+05
    2.8700113297e-02    1.0233777344e+05
    2.8718546033e-02    1.0233557031e+05
    2.8736986220e-02    1.0233497656e+05
    2.8755431995e-02    1.0233480469e+05
    2.8773877770e-02    1.0233389844e+05
    2.8792314231e-02    1.0232393750e+05
    2.8810730204e-02    1.0232300781e+05
    2.8829116374e-02    1.0232225781e+05
    2.8847465292e-02    1.0232171094e+05
    2.8865773231e-02    1.0233047656e+05
    2.8884036466e-02    1.0232758594e+05
    2.8902258724e-02    1.0232242969e+05
    2.8920443729e-02    1.0231894531e+05
    2.8938598931e-02    1.0232286719e+05
    2.8956729919e-02    1.0232239844e+05
    2.8974846005e-02    1.0232734375e+05
    2.8992949054e-02    1.0231793750e+05
    2.9011042789e-02    1.0231778906e+05
    2.9029129073e-02    1.0232225000e+05
    2.9047204182e-02    1.0232691406e+05
    2.9065268114e-02    1.0232746094e+05
    2.9083315283e-02    1.0232513281e+05
    2.9101338238e-02    1.0232564844e+05
    2.9119335115e-02    1.0232603125e+05
    2.9137304053e-02    1.0232868750e+05
    2.9155241325e-02    1.0232859375e+05
    2.9173148796e-02    1.0232872656e+05
    2.9191024601e-02    1.0233317969e+05
    2.9208874330e-02    1.0233628906e+05
    2.9226697981e-02    1.0233218750e+05
    2.9244501144e-02    1.0233028125e+05
    2.9262285680e-02    1.0233061719e+05
    2.9280053452e-02    1.0233055469e+05
    2.9297806323e-02    1.0233037500e+05
    2.9315544292e-02    1.0232981250e+05
    2.9333265498e-02    1.0232963281e+05
    2.9350971803e-02    1.0232916406e+05
    2.9368655756e-02    1.0232878125e+05
    2.9386319220e-02    1.0232789844e+05
    2.9403960332e-02    1.0232662500e+05
    2.9421577230e-02    1.0232535156e+05
    2.9439168051e-02    1.0232400000e+05
    2.9456734657e-02    1.0232310156e+05
    2.9474277049e-02    1.0231950000e+05
    2.9491795227e-02    1.0231577344e+05
    2.9509292915e-02    1.0231478906e+05
    2.9526771978e-02    1.0231661719e+05
    2.9544232413e-02    1.0231853125e+05
    2.9561674222e-02    1.0231832031e+05
    2.9579099268e-02    1.0231383594e+05
    2.9596509412e-02    1.0231578906e+05
    2.9613900930e-02    1.0231782031e+05
    2.9631273821e-02    1.0231371094e+05
    2.9648626223e-02    1.0231434375e+05
    2.9665958136e-02    1.0232039844e+05
    2.9683271423e-02    1.0232175781e+05
    2.9700560495e-02    1.0232371875e+05
    2.9717829078e-02    1.0232590625e+05
    2.9735075310e-02    1.0232844531e+05
    2.9752301052e-02    1.0233094531e+05
    2.9769508168e-02    1.0232940625e+05
    2.9786696658e-02    1.0232969531e+05
    2.9803866521e-02    1.0232977344e+05
    2.9821017757e-02    1.0233259375e+05
    2.9838152230e-02    1.0233516406e+05
    2.9855269939e-02    1.0233780469e+05
    2.9872370884e-02    1.0233066406e+05
    2.9889453202e-02    1.0233272656e+05
    2.9906518757e-02    1.0233414844e+05
    2.9923565686e-02    1.0232853125e+05
    2.9940593988e-02    1.0232710156e+05
    2.9957601801e-02    1.0232739844e+05
    2.9974590987e-02    1.0232777344e+05
    2.9991561547e-02    1.0231867969e+05
    3.0008511618e-02    1.0231816406e+05
    3.0025444925e-02    1.0231791406e+05
    3.0042361468e-02    1.0231706250e+05
    3.0059259385e-02    1.0232057031e+05
    3.0076142401e-02    1.0231960156e+05
    3.0093006790e-02    1.0232371094e+05
    3.0109854415e-02    1.0232311719e+05
    3.0126683414e-02    1.0232266406e+05
    3.0143497512e-02    1.0232190625e+05
    3.0160292983e-02    1.0233086719e+05
    3.0177071691e-02    1.0233108594e+05
    3.0193833634e-02    1.0234089844e+05
    3.0210576952e-02    1.0234635156e+05
    3.0227303505e-02    1.0235762500e+05
    3.0244011432e-02    1.0236489844e+05
    3.0260702595e-02    1.0237186719e+05
    3.0277376994e-02    1.0237984375e+05
    3.0294034630e-02    1.0238310156e+05
    3.0310675502e-02    1.0239089844e+05
    3.0327299610e-02    1.0239941406e+05
    3.0343905091e-02    1.0240325000e+05
    3.0360495672e-02    1.0240730469e+05
    3.0377071351e-02    1.0241160156e+05
    3.0393628404e-02    1.0242003125e+05
    3.0410168692e-02    1.0242416406e+05
    3.0426690355e-02    1.0242414844e+05
    3.0443195254e-02    1.0242835156e+05
    3.0459685251e-02    1.0243256250e+05
    3.0476156622e-02    1.0243664844e+05
    3.0492611229e-02    1.0244059375e+05
    3.0509050936e-02    1.0244441406e+05
    3.0525473878e-02    1.0243824219e+05
    3.0541881919e-02    1.0244084375e+05
    3.0558273196e-02    1.0243796094e+05
    3.0574647710e-02    1.0243544531e+05
    3.0591005459e-02    1.0243658594e+05
    3.0607348308e-02    1.0243764844e+05
    3.0623674393e-02    1.0242906250e+05
    3.0639985576e-02    1.0242975000e+05
    3.0656279996e-02    1.0242068750e+05
    3.0672557652e-02    1.0242077344e+05
    3.0688818544e-02    1.0242089844e+05
    3.0705062672e-02    1.0242059375e+05
    3.0721291900e-02    1.0242019531e+05
    3.0737506226e-02    1.0241017969e+05
    3.0753703788e-02    1.0240914844e+05
    3.0769886449e-02    1.0240775781e+05
    3.0786054209e-02    1.0240205469e+05
    3.0802207068e-02    1.0239535156e+05
    3.0818343163e-02    1.0239321875e+05
    3.0834466219e-02    1.0239133594e+05
    3.0850572512e-02    1.0237959375e+05
    3.0866663903e-02    1.0237716406e+05
    3.0882738531e-02    1.0237417969e+05
    3.0898798257e-02    1.0237093750e+05
    3.0914843082e-02    1.0236735156e+05
    3.0930871144e-02    1.0235421875e+05
    3.0946886167e-02    1.0234993750e+05
    3.0962884426e-02    1.0234553906e+05
    3.0978867784e-02    1.0233630469e+05
    3.0994836241e-02    1.0232781250e+05
    3.1010789797e-02    1.0233085156e+05
    3.1026728451e-02    1.0232903125e+05
    3.1042650342e-02    1.0232505469e+05
    3.1058559194e-02    1.0232159375e+05
    3.1074455008e-02    1.0231758594e+05
    3.1090334058e-02    1.0231350000e+05
    3.1106200069e-02    1.0230932031e+05
    3.1122051179e-02    1.0230549219e+05
    3.1137887388e-02    1.0230127344e+05
    3.1153710559e-02    1.0229735156e+05
    3.1169516966e-02    1.0229360156e+05
    3.1185310334e-02    1.0229037500e+05
    3.1201090664e-02    1.0228958594e+05
    3.1216854230e-02    1.0228908594e+05
    3.1232602894e-02    1.0229171094e+05
    3.1248336658e-02    1.0228977344e+05
    3.1264055520e-02    1.0228778125e+05
    3.1279761344e-02    1.0229558594e+05
    3.1295452267e-02    1.0229434375e+05
    3.1311132014e-02    1.0229272656e+05
    3.1326796860e-02    1.0229091406e+05
    3.1342446804e-02    1.0228928906e+05
    3.1358085573e-02    1.0228486719e+05
    3.1373709440e-02    1.0228540625e+05
    3.1389318407e-02    1.0228387500e+05
    3.1404916197e-02    1.0228267969e+05
    3.1420499086e-02    1.0228610156e+05
    3.1436067075e-02    1.0229102344e+05
    3.1451620162e-02    1.0229843750e+05
    3.1467158347e-02    1.0230171094e+05
    3.1482685357e-02    1.0230308594e+05
    3.1498193741e-02    1.0230461719e+05
    3.1513694674e-02    1.0231078125e+05
    3.1529176980e-02    1.0231689844e+05
    3.1544648111e-02    1.0231842969e+05
    3.1560108066e-02    1.0232021875e+05
    3.1575553119e-02    1.0231964844e+05
    3.1590986997e-02    1.0232422656e+05
    3.1606405973e-02    1.0232662500e+05
    3.1621813774e-02    1.0232885156e+05
    3.1637206674e-02    1.0233147656e+05
    3.1652588397e-02    1.0233414844e+05
    3.1667951494e-02    1.0233721094e+05
    3.1683307141e-02    1.0234003125e+05
    3.1698647887e-02    1.0234317969e+05
    3.1713977456e-02    1.0234597656e+05
    3.1729292125e-02    1.0234921094e+05
    3.1744595617e-02    1.0235228125e+05
    3.1759884208e-02    1.0235555469e+05
    3.1775161624e-02    1.0235874219e+05
    3.1790427864e-02    1.0236232031e+05
    3.1805675477e-02    1.0236591406e+05
    3.1820915639e-02    1.0237189844e+05
    3.1836140901e-02    1.0237828125e+05
    3.1851354986e-02    1.0238217969e+05
    3.1866557896e-02    1.0238750000e+05
    3.1881745905e-02    1.0238852344e+05
    3.1896922737e-02    1.0238990625e+05
    3.1912088394e-02    1.0239109375e+05
    3.1927239150e-02    1.0239440625e+05
    3.1942378730e-02    1.0239772656e+05
    3.1957507133e-02    1.0240113281e+05
    3.1972620636e-02    1.0240456250e+05
    3.1987726688e-02    1.0240786719e+05
    3.2002814114e-02    1.0241103906e+05
    3.2017890364e-02    1.0241389844e+05
    3.2032959163e-02    1.0241650781e+05
    3.2048013061e-02    1.0241172656e+05
    3.2063052058e-02    1.0241175000e+05
    3.2078083605e-02    1.0241391406e+05
    3.2093103975e-02    1.0241571094e+05
    3.2108109444e-02    1.0241803906e+05
    3.2123107463e-02    1.0241999219e+05
    3.2138090581e-02    1.0242243750e+05
    3.2153062522e-02    1.0242488281e+05
    3.2168023288e-02    1.0242708594e+05
    3.2182972878e-02    1.0242937500e+05
    3.2197911292e-02    1.0243893750e+05
    3.2212834805e-02    1.0244163281e+05
    3.2227750868e-02    1.0243702344e+05
    3.2242652029e-02    1.0243959375e+05
    3.2257542014e-02    1.0244216406e+05
    3.2272424549e-02    1.0244465625e+05
    3.2287292182e-02    1.0244738281e+05
    3.2302148640e-02    1.0244978125e+05
    3.2316997647e-02    1.0245218750e+05
    3.2331831753e-02    1.0244771094e+05
    3.2346658409e-02    1.0244758594e+05
    3.2361470163e-02    1.0244957031e+05
    3.2376270741e-02    1.0245664844e+05
    3.2391063869e-02    1.0246328125e+05
    3.2405842096e-02    1.0246580469e+05
    3.2420612872e-02    1.0246835156e+05
    3.2435368747e-02    1.0247096875e+05
    3.2450113446e-02    1.0247363281e+05
    3.2464850694e-02    1.0247637500e+05
    3.2479573041e-02    1.0247913281e+05
    3.2494287938e-02    1.0248150000e+05
    3.2508991659e-02    1.0248378125e+05
    3.2523684204e-02    1.0248347656e+05
    3.2538365573e-02    1.0248075781e+05
    3.2553035766e-02    1.0247986719e+05
    3.2567698509e-02    1.0248588281e+05
    3.2582346350e-02    1.0248997656e+05
    3.2596986741e-02    1.0248941406e+05
    3.2611619681e-02    1.0249069531e+05
    3.2626237720e-02    1.0248708594e+05
    3.2640848309e-02    1.0248777344e+05
    3.2655447721e-02    1.0248827344e+05
    3.2670035958e-02    1.0248853125e+05
    3.2684613019e-02    1.0248855469e+05
    3.2699178904e-02    1.0248839844e+05
    3.2713737339e-02    1.0248810156e+05
    3.2728284597e-02    1.0248250781e+05
    3.2742820680e-02    1.0248169531e+05
    3.2757349312e-02    1.0247807031e+05
    3.2771866769e-02    1.0247119531e+05
    3.2786373049e-02    1.0246577344e+05
    3.2800871879e-02    1.0246247656e+05
    3.2815355808e-02    1.0245633594e+05
    3.2829832286e-02    1.0244996094e+05
    3.2844301313e-02    1.0244553906e+05
    3.2858755440e-02    1.0244106250e+05
    3.2873202115e-02    1.0243659375e+05
    3.2887637615e-02    1.0243216406e+05
    3.2902065665e-02    1.0242502344e+05
    3.2916482538e-02    1.0241771875e+05
    3.2930891961e-02    1.0241268750e+05
    3.2945290208e-02    1.0240281250e+05
    3.2959677279e-02    1.0239685156e+05
    3.2974056900e-02    1.0239072656e+05
    3.2988425344e-02    1.0238203906e+05
    3.3002786338e-02    1.0237318750e+05
    3.3017136157e-02    1.0236499219e+05
    3.3031478524e-02    1.0236167969e+05
    3.3045809716e-02    1.0235839844e+05
    3.3060129732e-02    1.0235510156e+05
    3.3074442297e-02    1.0234746875e+05
    3.3088747412e-02    1.0234016406e+05
    3.3103041351e-02    1.0233571094e+05
    3.3117324114e-02    1.0233603125e+05
    3.3131599426e-02    1.0233239844e+05
    3.3145863563e-02    1.0232955469e+05
    3.3160120249e-02    1.0232681250e+05
    3.3174365759e-02    1.0232961719e+05
    3.3188603818e-02    1.0232816406e+05
    3.3202830702e-02    1.0232744531e+05
    3.3217050135e-02    1.0232950781e+05
    3.3231258392e-02    1.0233685156e+05
    3.3245459199e-02    1.0233825781e+05
    3.3259648830e-02    1.0234925781e+05
    3.3273831010e-02    1.0235199219e+05
    3.3288005739e-02    1.0235981250e+05
    3.3302169293e-02    1.0236853906e+05
    3.3316325396e-02    1.0237263281e+05
    3.3330474049e-02    1.0237703125e+05
    3.3344611526e-02    1.0238141406e+05
    3.3358741552e-02    1.0238593750e+05
    3.3372864127e-02    1.0239271094e+05
    3.3386975527e-02    1.0239972656e+05
    3.3401079476e-02    1.0240472656e+05
    3.3415172249e-02    1.0241482031e+05
    3.3429257572e-02    1.0242237500e+05
    3.3443335444e-02    1.0243012500e+05
    3.3457405865e-02    1.0243524219e+05
    3.3471468836e-02    1.0244041406e+05
    3.3485524356e-02    1.0244581250e+05
    3.3499568701e-02    1.0245071094e+05
    3.3513605595e-02    1.0245502344e+05
    3.3527631313e-02    1.0245892969e+05
    3.3541653305e-02    1.0246060156e+05
    3.3555664122e-02    1.0246402344e+05
    3.3569667488e-02    1.0246724219e+05
    3.3583663404e-02    1.0246774219e+05
    3.3597648144e-02    1.0246819531e+05
    3.3611625433e-02    1.0247071094e+05
    3.3625595272e-02    1.0247085156e+05
    3.3639557660e-02    1.0247275000e+05
    3.3653512597e-02    1.0247450781e+05
    3.3667460084e-02    1.0247608594e+05
    3.3681396395e-02    1.0247222656e+05
    3.3695328981e-02    1.0247319531e+05
    3.3709254116e-02    1.0247372656e+05
    3.3723168075e-02    1.0246937500e+05
    3.3737078309e-02    1.0246397656e+05
    3.3750977367e-02    1.0246299219e+05
    3.3764872700e-02    1.0246133594e+05
    3.3778760582e-02    1.0245933594e+05
    3.3792637289e-02    1.0245250000e+05
    3.3806510270e-02    1.0244982031e+05
    3.3820372075e-02    1.0244739844e+05
    3.3834230155e-02    1.0244481250e+05
    3.3848077059e-02    1.0244221094e+05
    3.3861916512e-02    1.0243758594e+05
    3.3875752240e-02    1.0243291406e+05
    3.3889576793e-02    1.0243075000e+05
    3.3903393894e-02    1.0242613281e+05
    3.3917203546e-02    1.0242152344e+05
    3.3931009471e-02    1.0241888281e+05
    3.3944804221e-02    1.0241671875e+05
    3.3958595246e-02    1.0241421875e+05
    3.3972378820e-02    1.0241181250e+05
    3.3986151218e-02    1.0240966406e+05
    3.3999919891e-02    1.0240774219e+05
    3.4013681114e-02    1.0240596875e+05
    3.4027434886e-02    1.0240472656e+05
    3.4041177481e-02    1.0240834375e+05
    3.4054916352e-02    1.0240749219e+05
    3.4068647772e-02    1.0241109375e+05
    3.4082375467e-02    1.0241071094e+05
    3.4096091986e-02    1.0241031250e+05
    3.4109804779e-02    1.0241010156e+05
    3.4123510122e-02    1.0240999219e+05
    3.4137208015e-02    1.0240988281e+05
    3.4150898457e-02    1.0240746094e+05
    3.4164581448e-02    1.0240713281e+05
    3.4178260714e-02    1.0240864844e+05
    3.4191932529e-02    1.0240830469e+05
    3.4205596894e-02    1.0240796094e+05
    3.4219253808e-02    1.0241039844e+05
    3.4232903272e-02    1.0241281250e+05
    3.4246545285e-02    1.0241743750e+05
    3.4260183573e-02    1.0241767969e+05
    3.4273810685e-02    1.0241341406e+05
    3.4287434071e-02    1.0240967969e+05
    3.4301050007e-02    1.0241453906e+05
    3.4314658493e-02    1.0241266406e+05
    3.4328263253e-02    1.0241294531e+05
    3.4341860563e-02    1.0241085156e+05
    3.4355450422e-02    1.0241085156e+05
    3.4369036555e-02    1.0241085156e+05
    3.4382611513e-02    1.0241567969e+05
    3.4396182746e-02    1.0241535156e+05
    3.4409742802e-02    1.0241262500e+05
    3.4423299134e-02    1.0240978906e+05
    3.4436848015e-02    1.0240931250e+05
    3.4450393170e-02    1.0240878125e+05
    3.4463927150e-02    1.0240803125e+05
    3.4477461129e-02    1.0240953125e+05
    3.4490987659e-02    1.0240647656e+05
    3.4504506737e-02    1.0240575781e+05
    3.4518022090e-02    1.0240512500e+05
    3.4531529993e-02    1.0240444531e+05
    3.4545030445e-02    1.0240353906e+05
    3.4558523446e-02    1.0240259375e+05
    3.4572008997e-02    1.0240167969e+05
    3.4585487098e-02    1.0240058594e+05
    3.4598957747e-02    1.0239957031e+05
    3.4612424672e-02    1.0239833594e+05
    3.4625884145e-02    1.0239716406e+05
    3.4639336169e-02    1.0239603906e+05
    3.4652780741e-02    1.0239308594e+05
    3.4666225314e-02    1.0239430469e+05
    3.4679658711e-02    1.0239396094e+05
    3.4693088382e-02    1.0239366406e+05
    3.4706510603e-02    1.0239611719e+05
    3.4719929099e-02    1.0239633594e+05
    3.4733340144e-02    1.0239900000e+05
    3.4746743739e-02    1.0240403125e+05
    3.4760143608e-02    1.0240462500e+05
    3.4773536026e-02    1.0240571875e+05
    3.4786924720e-02    1.0240660156e+05
    3.4800305963e-02    1.0240739844e+05
    3.4813679755e-02    1.0240828906e+05
    3.4827046096e-02    1.0240888281e+05
    3.4840408713e-02    1.0240006250e+05
    3.4853763878e-02    1.0240040625e+05
    3.4867111593e-02    1.0240527344e+05
    3.4880455583e-02    1.0241024219e+05
    3.4893795848e-02    1.0241053125e+05
    3.4907124937e-02    1.0241074219e+05
    3.4920454025e-02    1.0241116406e+05
    3.4933775663e-02    1.0241153906e+05
    3.4947093576e-02    1.0241196875e+05
    3.4960404038e-02    1.0241252344e+05
    3.4973710775e-02    1.0241267969e+05
    3.4987010062e-02    1.0241290625e+05
endcurve
