Curveplot
LS-DYNA keyword deck by LS-PrePost                          
Time
Pressure
Defined Connection
Pressure @ 15 #pts=1745
* Minval=     9.8472398438e+04 at time=         0.0130216638
* Maxval=     1.7143792188e+05 at time=         0.0060972143
    0.0000000000e+00    9.9998562500e+04
    3.3812357287e-05    9.9998562500e+04
    6.1326652940e-05    9.9998195312e+04
    8.9102875791e-05    9.9998250000e+04
    1.1682785407e-04    9.9998648438e+04
    1.4461828687e-04    9.9999210938e+04
    1.7236733402e-04    9.9999070312e+04
    2.0016246708e-04    1.0000877344e+05
    2.2795486439e-04    1.0000044531e+05
    2.5574557367e-04    1.0000072656e+05
    2.8353667585e-04    1.0000041406e+05
    3.1133697485e-04    9.9990398438e+04
    3.3912662184e-04    9.9999375000e+04
    3.6691734567e-04    9.9999898438e+04
    3.9470891352e-04    1.0000069531e+05
    4.2249175021e-04    1.0001041406e+05
    4.5027161832e-04    1.0000121094e+05
    4.7804549104e-04    1.0000163281e+05
    5.0581363030e-04    9.9991960938e+04
    5.3357944125e-04    1.0000086719e+05
    5.6134146871e-04    1.0000121094e+05
    5.8909942163e-04    1.0000069531e+05
    6.1685312539e-04    9.9995562500e+04
    6.4460188150e-04    1.0000057031e+05
    6.7234638846e-04    1.0001053125e+05
    7.0008635521e-04    1.0000212500e+05
    7.2782178177e-04    1.0000200781e+05
    7.5555208605e-04    9.9992601562e+04
    7.8327720985e-04    9.9991507812e+04
    8.1099680392e-04    1.0000003906e+05
    8.3871174138e-04    1.0000977344e+05
    8.6642213864e-04    1.0000139844e+05
    8.9412782108e-04    9.9991625000e+04
    9.2182843946e-04    9.9991437500e+04
    9.4952445943e-04    1.0000102344e+05
    9.7721535712e-04    1.0000660156e+05
    1.0049008997e-03    1.0000238281e+05
    1.0325826006e-03    1.0000163281e+05
    1.0602590628e-03    1.0000115625e+05
    1.0879321489e-03    1.0001064844e+05
    1.1155996472e-03    1.0000202344e+05
    1.1432634201e-03    9.9992601562e+04
    1.1709230021e-03    9.9989148438e+04
    1.1985785095e-03    9.9990835938e+04
    1.2262313394e-03    1.0000489844e+05
    1.2538790470e-03    1.0001128906e+05
    1.2815232622e-03    1.0001014844e+05
    1.3091630535e-03    9.9998585938e+04
    1.3368004002e-03    9.9995164062e+04
    1.3644339051e-03    1.0000834375e+05
    1.3920635683e-03    1.0002592969e+05
    1.4196902048e-03    1.0005311719e+05
    1.4473132323e-03    1.0010199219e+05
    1.4749332331e-03    1.0019172656e+05
    1.5025498578e-03    1.0032590625e+05
    1.5301633393e-03    1.0052142969e+05
    1.5577742597e-03    1.0077341406e+05
    1.5853822697e-03    1.0109636719e+05
    1.6129877185e-03    1.0146262500e+05
    1.6405890929e-03    1.0186588281e+05
    1.6681876732e-03    1.0225006250e+05
    1.6957829939e-03    1.0260075781e+05
    1.7233766848e-03    1.0287364844e+05
    1.7509678146e-03    1.0305246094e+05
    1.7785291420e-03    1.0313841406e+05
    1.8060547300e-03    1.0313100781e+05
    1.8335470231e-03    1.0305318750e+05
    1.8610082334e-03    1.0291414844e+05
    1.8884401070e-03    1.0275088281e+05
    1.9158447394e-03    1.0257952344e+05
    1.9432241097e-03    1.0242149219e+05
    1.9705800805e-03    1.0230063281e+05
    1.9979148638e-03    1.0222331250e+05
    2.0252298564e-03    1.0219428906e+05
    2.0525271539e-03    1.0221412500e+05
    2.0798076876e-03    1.0227253906e+05
    2.1070730872e-03    1.0234244531e+05
    2.1343247499e-03    1.0241024219e+05
    2.1615643054e-03    1.0247756250e+05
    2.1887931507e-03    1.0252318750e+05
    2.2160108201e-03    1.0254324219e+05
    2.2432196420e-03    1.0254421875e+05
    2.2704207804e-03    1.0251944531e+05
    2.2976147011e-03    1.0248646094e+05
    2.3248014040e-03    1.0245064844e+05
    2.3519827519e-03    1.0241113281e+05
    2.3791582789e-03    1.0238994531e+05
    2.4063293822e-03    1.0237850781e+05
    2.4334960617e-03    1.0238647656e+05
    2.4606597144e-03    1.0239397656e+05
    2.4878205732e-03    1.0241063281e+05
    2.5149781723e-03    1.0243266406e+05
    2.5421329774e-03    1.0244214844e+05
    2.5692859199e-03    1.0244389844e+05
    2.5964374654e-03    1.0244353906e+05
    2.6235871483e-03    1.0244541406e+05
    2.6507352013e-03    1.0244391406e+05
    2.6778825559e-03    1.0243325000e+05
    2.7050296776e-03    1.0242015625e+05
    2.7321761008e-03    1.0241375781e+05
    2.7593218256e-03    1.0241450000e+05
    2.7864677832e-03    1.0241985156e+05
    2.8136142064e-03    1.0242230469e+05
    2.8407603968e-03    1.0242540625e+05
    2.8679079842e-03    1.0244809375e+05
    2.8950548731e-03    1.0246235156e+05
    2.9222022276e-03    1.0248966406e+05
    2.9493502807e-03    1.0252360156e+05
    2.9764990322e-03    1.0257339844e+05
    3.0036487151e-03    1.0263721094e+05
    3.0307997949e-03    1.0271847656e+05
    3.0579508748e-03    1.0281178906e+05
    3.0851035845e-03    1.0291499219e+05
    3.1122572254e-03    1.0302539844e+05
    3.1394117977e-03    1.0312300000e+05
    3.1665677670e-03    1.0320537500e+05
    3.1937246677e-03    1.0326913281e+05
    3.2208829653e-03    1.0330212500e+05
    3.2480424270e-03    1.0330288281e+05
    3.2752046827e-03    1.0328803906e+05
    3.2952371985e-03    1.0325591406e+05
    3.3145032357e-03    1.0322453125e+05
    3.3336398192e-03    1.0318396094e+05
    3.3528339118e-03    1.0314405469e+05
    3.3720366191e-03    1.0310524219e+05
    3.3912549261e-03    1.0306577344e+05
    3.4104890656e-03    1.0302208594e+05
    3.4297339153e-03    1.0298356250e+05
    3.4486323129e-03    1.0293686719e+05
    3.4671388566e-03    1.0289177344e+05
    3.4854323603e-03    1.0284346875e+05
    3.5036695190e-03    1.0279241406e+05
    3.5219141282e-03    1.0273683594e+05
    3.5401545465e-03    1.0268430469e+05
    3.5583588760e-03    1.0263337500e+05
    3.5765271168e-03    1.0258702344e+05
    3.5946895368e-03    1.0255157031e+05
    3.6139658187e-03    1.0252389844e+05
    3.6330535077e-03    1.0251800000e+05
    3.6521453876e-03    1.0252613281e+05
    3.6699753255e-03    1.0255403906e+05
    3.6875614896e-03    1.0259991406e+05
    3.7050142419e-03    1.0265572656e+05
    3.7224807311e-03    1.0271910156e+05
    3.7400643341e-03    1.0279232031e+05
    3.7577797193e-03    1.0286746094e+05
    3.7755726371e-03    1.0294803125e+05
    3.7933769636e-03    1.0302825000e+05
    3.8111612666e-03    1.0311096875e+05
    3.8289318327e-03    1.0319466406e+05
    3.8467168342e-03    1.0327531250e+05
    3.8645383902e-03    1.0334178906e+05
    3.8824023213e-03    1.0339438281e+05
    3.9002960548e-03    1.0343610156e+05
    3.9182156324e-03    1.0345771094e+05
    3.9361710660e-03    1.0346353906e+05
    3.9541716687e-03    1.0344999219e+05
    3.9733103476e-03    1.0342046094e+05
    3.9924201556e-03    1.0337252344e+05
    4.0104058571e-03    1.0330588281e+05
    4.0284004062e-03    1.0323307031e+05
    4.0464363992e-03    1.0314369531e+05
    4.0656095371e-03    1.0303855469e+05
    4.0847789496e-03    1.0291632031e+05
    4.1039343923e-03    1.0277905469e+05
    4.1219722480e-03    1.0263521875e+05
    4.1400394402e-03    1.0249111719e+05
    4.1591953486e-03    1.0234709375e+05
    4.1784178466e-03    1.0219321875e+05
    4.1976389475e-03    1.0204735156e+05
    4.2168586515e-03    1.0190708594e+05
    4.2360713705e-03    1.0177860156e+05
    4.2552771047e-03    1.0166391406e+05
    4.2744791135e-03    1.0155546094e+05
    4.2936825193e-03    1.0146356250e+05
    4.3128933758e-03    1.0137953906e+05
    4.3321144767e-03    1.0131211719e+05
    4.3513495475e-03    1.0125696875e+05
    4.3705995195e-03    1.0121853906e+05
    4.3898657896e-03    1.0119672656e+05
    4.4091497548e-03    1.0118103906e+05
    4.4284537435e-03    1.0116802344e+05
    4.4477786869e-03    1.0115299219e+05
    4.4671236537e-03    1.0113171875e+05
    4.4864914380e-03    1.0110396094e+05
    4.5058806427e-03    1.0106258594e+05
    4.5252908021e-03    1.0101553125e+05
    4.5447219163e-03    1.0095667969e+05
    4.5641721226e-03    1.0088035156e+05
    4.5836409554e-03    1.0078971875e+05
    4.6031279489e-03    1.0068335156e+05
    4.6226321720e-03    1.0056141406e+05
    4.6421540901e-03    1.0042483594e+05
    4.6616927721e-03    1.0028253125e+05
    4.6812482178e-03    1.0014160156e+05
    4.7008208930e-03    1.0000241406e+05
    4.7204112634e-03    9.9870398438e+04
    4.7400193289e-03    9.9752648438e+04
    4.7596455552e-03    9.9647523438e+04
    4.7792894766e-03    9.9564085938e+04
    4.7989510931e-03    9.9501476562e+04
    4.8186304048e-03    9.9461273438e+04
    4.8383255489e-03    9.9443820312e+04
    4.8580355942e-03    9.9451101562e+04
    4.8777610064e-03    9.9475289062e+04
    4.8975008540e-03    9.9508039062e+04
    4.9172551371e-03    9.9549531250e+04
    4.9370229244e-03    9.9595960938e+04
    4.9568060786e-03    9.9647000000e+04
    4.9766036682e-03    9.9697195312e+04
    4.9964170903e-03    9.9744101562e+04
    5.0162458792e-03    9.9786343750e+04
    5.0360900350e-03    9.9820601562e+04
    5.0559476949e-03    9.9850406250e+04
    5.0758207217e-03    9.9875414062e+04
    5.0957072526e-03    9.9893648438e+04
    5.1156077534e-03    9.9905476562e+04
    5.1355226897e-03    9.9917789062e+04
    5.1554525271e-03    9.9927000000e+04
    5.1753963344e-03    9.9933781250e+04
    5.1953555085e-03    9.9938820312e+04
    5.2153295837e-03    9.9947179688e+04
    5.2353194915e-03    9.9962031250e+04
    5.2553247660e-03    9.9979382812e+04
    5.2753463387e-03    1.0000402344e+05
    5.2953832783e-03    1.0002272656e+05
    5.3154369816e-03    1.0004802344e+05
    5.3355065174e-03    1.0007805469e+05
    5.3555918857e-03    1.0010524219e+05
    5.3756926209e-03    1.0013543750e+05
    5.3958082572e-03    1.0016208594e+05
    5.4159392603e-03    1.0018827344e+05
    5.4360851645e-03    1.0020997656e+05
    5.4562464356e-03    1.0023541406e+05
    5.4764230736e-03    1.0025752344e+05
    5.4966160096e-03    1.0027396094e+05
    5.5168238468e-03    1.0028899219e+05
    5.5370470509e-03    1.0029850781e+05
    5.5572865531e-03    1.0030908594e+05
    5.5775423534e-03    1.0032349219e+05
    5.5978130549e-03    1.0033759375e+05
    5.6181000546e-03    1.0034671094e+05
    5.6384028867e-03    1.0035549219e+05
    5.6587206200e-03    1.0036897656e+05
    5.6790532544e-03    1.0038210156e+05
    5.6994007900e-03    1.0039481250e+05
    5.7197632268e-03    1.0040491406e+05
    5.7401410304e-03    1.0041247656e+05
    5.7605337352e-03    1.0042237500e+05
    5.7809422724e-03    1.0044169531e+05
    5.8013652451e-03    1.0046694531e+05
    5.8218040504e-03    1.0051127344e+05
    5.8422577567e-03    1.0060385156e+05
    5.8627268299e-03    1.0080847656e+05
    5.8832112700e-03    1.0128935156e+05
    5.9037101455e-03    1.0236830469e+05
    5.9242248535e-03    1.0467072656e+05
    5.9447535314e-03    1.0909332031e+05
    5.9641525149e-03    1.1646636719e+05
    5.9830932878e-03    1.2626550000e+05
    6.0020405799e-03    1.3764357812e+05
    6.0210367665e-03    1.4918989062e+05
    6.0400799848e-03    1.5909681250e+05
    6.0591096990e-03    1.6615229688e+05
    6.0781282373e-03    1.7008570312e+05
    6.0972142965e-03    1.7143792188e+05
    6.1162756756e-03    1.7110015625e+05
    6.1353649944e-03    1.6991650000e+05
    6.1544459313e-03    1.6851671875e+05
    6.1734300107e-03    1.6722146875e+05
    6.1924448237e-03    1.6600170312e+05
    6.2115197070e-03    1.6475234375e+05
    6.2306127511e-03    1.6333920312e+05
    6.2497169711e-03    1.6175128125e+05
    6.2688281760e-03    1.5999668750e+05
    6.2879407778e-03    1.5814903125e+05
    6.3070552424e-03    1.5628021875e+05
    6.3261794858e-03    1.5445896875e+05
    6.3453060575e-03    1.5271395312e+05
    6.3644465990e-03    1.5106318750e+05
    6.3835908659e-03    1.4949001562e+05
    6.4027444459e-03    1.4799996875e+05
    6.4219115302e-03    1.4654726562e+05
    6.4410855994e-03    1.4513264062e+05
    6.4602680504e-03    1.4374207812e+05
    6.4794607460e-03    1.4239726562e+05
    6.4986641519e-03    1.4110229688e+05
    6.5178787336e-03    1.3988460938e+05
    6.5371058881e-03    1.3873271875e+05
    6.5563363023e-03    1.3764714062e+05
    6.5755699761e-03    1.3662178125e+05
    6.5948092379e-03    1.3564493750e+05
    6.6140629351e-03    1.3470571875e+05
    6.6333152354e-03    1.3381667188e+05
    6.6525745206e-03    1.3297143750e+05
    6.6718445159e-03    1.3217257812e+05
    6.6911154427e-03    1.3141360938e+05
    6.7104012705e-03    1.3069342969e+05
    6.7296870984e-03    1.3000489844e+05
    6.7489854991e-03    1.2934284375e+05
    6.7682852969e-03    1.2870489844e+05
    6.7875892855e-03    1.2809403906e+05
    6.8069072440e-03    1.2749853125e+05
    6.8262196146e-03    1.2691827344e+05
    6.8455408327e-03    1.2635275000e+05
    6.8648783490e-03    1.2580208594e+05
    6.8842126057e-03    1.2526541406e+05
    6.9035501219e-03    1.2475257031e+05
    6.9228983484e-03    1.2426358594e+05
    6.9422605447e-03    1.2380266406e+05
    6.9616222754e-03    1.2336071875e+05
    6.9809844717e-03    1.2293952344e+05
    7.0003494620e-03    1.2254333594e+05
    7.0197195746e-03    1.2216707031e+05
    7.0390999317e-03    1.2180833594e+05
    7.0584909990e-03    1.2147221875e+05
    7.0778946392e-03    1.2115585156e+05
    7.0973108523e-03    1.2086213281e+05
    7.1167377755e-03    1.2057652344e+05
    7.1361698210e-03    1.2030924219e+05
    7.1556069888e-03    1.2004928906e+05
    7.1750483476e-03    1.1981125781e+05
    7.1944966912e-03    1.1957818750e+05
    7.2139529511e-03    1.1935747656e+05
    7.2334166616e-03    1.1914053906e+05
    7.2528840974e-03    1.1893092969e+05
    7.2723543271e-03    1.1872492969e+05
    7.2918278165e-03    1.1851842969e+05
    7.3113050312e-03    1.1831053906e+05
    7.3307845742e-03    1.1810360156e+05
    7.3502692394e-03    1.1790432031e+05
    7.3697618209e-03    1.1770691406e+05
    7.3892641813e-03    1.1751314844e+05
    7.4087800458e-03    1.1731728906e+05
    7.4282912537e-03    1.1712046094e+05
    7.4477996677e-03    1.1692016406e+05
    7.4673094787e-03    1.1671257031e+05
    7.4868267402e-03    1.1650135156e+05
    7.5063589029e-03    1.1629199219e+05
    7.5258887373e-03    1.1607765625e+05
    7.5454111211e-03    1.1586353906e+05
    7.5649353676e-03    1.1563800000e+05
    7.5844703242e-03    1.1540477344e+05
    7.6040057465e-03    1.1515271094e+05
    7.6235276647e-03    1.1489050781e+05
    7.6430505142e-03    1.1462802344e+05
    7.6625877991e-03    1.1435135156e+05
    7.6821087860e-03    1.1406328906e+05
    7.7016241848e-03    1.1376302344e+05
    7.7211544849e-03    1.1345021094e+05
    7.7406810597e-03    1.1313221094e+05
    7.7602043748e-03    1.1279589844e+05
    7.7797495760e-03    1.1245255469e+05
    7.7992938459e-03    1.1210439844e+05
    7.8188432381e-03    1.1175283594e+05
    7.8384252265e-03    1.1140197656e+05
    7.8580006957e-03    1.1105260156e+05
    7.8775910661e-03    1.1070447656e+05
    7.8972103074e-03    1.1036933594e+05
    7.9168286175e-03    1.1004161719e+05
    7.9364804551e-03    1.0972408594e+05
    7.9561360180e-03    1.0942811719e+05
    7.9758102074e-03    1.0915169531e+05
    7.9955114052e-03    1.0889150000e+05
    8.0152126029e-03    1.0865713281e+05
    8.0349491909e-03    1.0844808594e+05
    8.0546662211e-03    1.0826567969e+05
    8.0743944272e-03    1.0810828906e+05
    8.0941170454e-03    1.0797890625e+05
    8.1138620153e-03    1.0787596875e+05
    8.1336386502e-03    1.0779293750e+05
    8.1534720957e-03    1.0772725781e+05
    8.1733558327e-03    1.0768215625e+05
    8.1932730973e-03    1.0764625000e+05
    8.2132071257e-03    1.0762339844e+05
    8.2330890000e-03    1.0760293750e+05
    8.2529615611e-03    1.0759842969e+05
    8.2727763802e-03    1.0759764844e+05
    8.2926023751e-03    1.0759537500e+05
    8.3124246448e-03    1.0759737500e+05
    8.3322748542e-03    1.0759703906e+05
    8.3521194756e-03    1.0759821094e+05
    8.3719678223e-03    1.0760605469e+05
    8.3917891607e-03    1.0761137500e+05
    8.4116021171e-03    1.0762571094e+05
    8.4314141423e-03    1.0764191406e+05
    8.4512168542e-03    1.0766055469e+05
    8.4710381925e-03    1.0768088281e+05
    8.4908353165e-03    1.0770208594e+05
    8.5106678307e-03    1.0772528906e+05
    8.5304882377e-03    1.0774499219e+05
    8.5503393784e-03    1.0776746094e+05
    8.5699046031e-03    1.0778458594e+05
    8.5892248899e-03    1.0779303125e+05
    8.6083402857e-03    1.0779581250e+05
    8.6272666231e-03    1.0778684375e+05
    8.6460309103e-03    1.0776952344e+05
    8.6646731943e-03    1.0774386719e+05
    8.6832325906e-03    1.0770890625e+05
    8.7017398328e-03    1.0766927344e+05
    8.7202098221e-03    1.0762353906e+05
    8.7386453524e-03    1.0757871094e+05
    8.7570473552e-03    1.0753785156e+05
    8.7753897533e-03    1.0749914844e+05
    8.7936492637e-03    1.0746491406e+05
    8.8118780404e-03    1.0743855469e+05
    8.8300397620e-03    1.0741963281e+05
    8.8481390849e-03    1.0740840625e+05
    8.8662039489e-03    1.0740283594e+05
    8.8842641562e-03    1.0740221094e+05
    8.9023411274e-03    1.0740421094e+05
    8.9204348624e-03    1.0740867969e+05
    8.9385388419e-03    1.0741400000e+05
    8.9566456154e-03    1.0742171094e+05
    8.9747514576e-03    1.0742689844e+05
    8.9928600937e-03    1.0743025000e+05
    9.0109808370e-03    1.0743077344e+05
    9.0291155502e-03    1.0742467969e+05
    9.0472688898e-03    1.0741753906e+05
    9.0654399246e-03    1.0740565625e+05
    9.0836230665e-03    1.0739716406e+05
    9.1018192470e-03    1.0738208594e+05
    9.1200266033e-03    1.0736543750e+05
    9.1382460669e-03    1.0734439844e+05
    9.1564757749e-03    1.0732166406e+05
    9.1747231781e-03    1.0728996094e+05
    9.1929892078e-03    1.0726602344e+05
    9.2112747952e-03    1.0723035156e+05
    9.2295790091e-03    1.0720246094e+05
    9.2479009181e-03    1.0716278125e+05
    9.2662386596e-03    1.0712102344e+05
    9.2845931649e-03    1.0707721875e+05
    9.3029672280e-03    1.0703057031e+05
    9.3213599175e-03    1.0697606250e+05
    9.3397712335e-03    1.0691316406e+05
    9.3582011759e-03    1.0685659375e+05
    9.3766497448e-03    1.0678680469e+05
    9.3951150775e-03    1.0671382031e+05
    9.4135999680e-03    1.0664700000e+05
    9.4321016222e-03    1.0657747656e+05
    9.4506228343e-03    1.0650556250e+05
    9.4691645354e-03    1.0643100781e+05
    9.4877239317e-03    1.0635472656e+05
    9.5063010231e-03    1.0628139844e+05
    9.5248948783e-03    1.0621050781e+05
    9.5435054973e-03    1.0614385156e+05
    9.5621328801e-03    1.0608441406e+05
    9.5807760954e-03    1.0602583594e+05
    9.5994332805e-03    1.0596853906e+05
    9.6181081608e-03    1.0591778906e+05
    9.6367979422e-03    1.0587297656e+05
    9.6555035561e-03    1.0582943750e+05
    9.6742231399e-03    1.0578258594e+05
    9.6929576248e-03    1.0574777344e+05
    9.7117051482e-03    1.0570946094e+05
    9.7304685041e-03    1.0567242969e+05
    9.7492448986e-03    1.0563072656e+05
    9.7680361941e-03    1.0558514844e+05
    9.7868405282e-03    1.0553903906e+05
    9.8056588322e-03    1.0549265625e+05
    9.8244920373e-03    1.0544116406e+05
    9.8433364183e-03    1.0538825781e+05
    9.8621929064e-03    1.0534021094e+05
    9.8810633644e-03    1.0528681250e+05
    9.8999459296e-03    1.0523131250e+05
    9.9188406020e-03    1.0516981250e+05
    9.9377483130e-03    1.0510666406e+05
    9.9566690624e-03    1.0504492969e+05
    9.9756028503e-03    1.0498221094e+05
    9.9945487455e-03    1.0491600781e+05
    1.0013507679e-02    1.0484878906e+05
    1.0032479651e-02    1.0478078125e+05
    1.0051463731e-02    1.0471156250e+05
    1.0070459917e-02    1.0464060156e+05
    1.0089469142e-02    1.0455890625e+05
    1.0108492337e-02    1.0448021875e+05
    1.0127528571e-02    1.0439456250e+05
    1.0146577843e-02    1.0430375000e+05
    1.0165639222e-02    1.0421041406e+05
    1.0184712708e-02    1.0410738281e+05
    1.0203798302e-02    1.0400172656e+05
    1.0222896002e-02    1.0389059375e+05
    1.0242006741e-02    1.0377700000e+05
    1.0261129588e-02    1.0366466406e+05
    1.0280264542e-02    1.0356516406e+05
    1.0299413465e-02    1.0346566406e+05
    1.0318575427e-02    1.0338228906e+05
    1.0337748565e-02    1.0331108594e+05
    1.0356934741e-02    1.0325314844e+05
    1.0376133956e-02    1.0321952344e+05
    1.0395346209e-02    1.0320113281e+05
    1.0414571501e-02    1.0319387500e+05
    1.0433809832e-02    1.0318935156e+05
    1.0453061201e-02    1.0319333594e+05
    1.0472324677e-02    1.0319955469e+05
    1.0491601191e-02    1.0321308594e+05
    1.0510892607e-02    1.0321399219e+05
    1.0530196130e-02    1.0320831250e+05
    1.0549513623e-02    1.0319727344e+05
    1.0568842292e-02    1.0317446094e+05
    1.0588183999e-02    1.0314862500e+05
    1.0607538745e-02    1.0311450000e+05
    1.0626907460e-02    1.0308142969e+05
    1.0646289214e-02    1.0304565625e+05
    1.0665684007e-02    1.0300421094e+05
    1.0685092770e-02    1.0296640625e+05
    1.0704516433e-02    1.0293217969e+05
    1.0723951273e-02    1.0289789844e+05
    1.0743400082e-02    1.0286928125e+05
    1.0762862861e-02    1.0283850000e+05
    1.0782338679e-02    1.0281447656e+05
    1.0801829398e-02    1.0278846875e+05
    1.0821334086e-02    1.0276335156e+05
    1.0840852745e-02    1.0273527344e+05
    1.0860386305e-02    1.0270402344e+05
    1.0879932903e-02    1.0267208594e+05
    1.0899493471e-02    1.0263653906e+05
    1.0919069871e-02    1.0261075781e+05
    1.0938662104e-02    1.0258478125e+05
    1.0958270170e-02    1.0256400000e+05
    1.0977892205e-02    1.0254882031e+05
    1.0997531936e-02    1.0254185156e+05
    1.1017187499e-02    1.0253800781e+05
    1.1036860757e-02    1.0253035156e+05
    1.1056551710e-02    1.0252374219e+05
    1.1076259427e-02    1.0251407031e+05
    1.1095987633e-02    1.0249935156e+05
    1.1115733534e-02    1.0248711719e+05
    1.1135498993e-02    1.0247485156e+05
    1.1155283079e-02    1.0246199219e+05
    1.1175086722e-02    1.0245405469e+05
    1.1194912717e-02    1.0243892969e+05
    1.1214758269e-02    1.0242425000e+05
    1.1234625243e-02    1.0241453906e+05
    1.1254511774e-02    1.0240066406e+05
    1.1274418794e-02    1.0238611719e+05
    1.1294347234e-02    1.0236446875e+05
    1.1314296164e-02    1.0234208594e+05
    1.1334266514e-02    1.0231703906e+05
    1.1354257353e-02    1.0229386719e+05
    1.1374268681e-02    1.0227075781e+05
    1.1394302361e-02    1.0224821094e+05
    1.1414355598e-02    1.0222174219e+05
    1.1434430256e-02    1.0219435156e+05
    1.1454525404e-02    1.0216528906e+05
    1.1474640109e-02    1.0213034375e+05
    1.1494777165e-02    1.0208777344e+05
    1.1514934711e-02    1.0204681250e+05
    1.1535113677e-02    1.0200492969e+05
    1.1555313133e-02    1.0196975781e+05
    1.1575534008e-02    1.0194916406e+05
    1.1595774442e-02    1.0195371875e+05
    1.1616035365e-02    1.0198691406e+05
    1.1636316776e-02    1.0207542969e+05
    1.1656619608e-02    1.0222058594e+05
    1.1676942930e-02    1.0245308594e+05
    1.1697287671e-02    1.0279164844e+05
    1.1717652902e-02    1.0325692969e+05
    1.1738038622e-02    1.0386700000e+05
    1.1758443899e-02    1.0464278906e+05
    1.1778870597e-02    1.0558216406e+05
    1.1799318716e-02    1.0666153906e+05
    1.1819788255e-02    1.0782955469e+05
    1.1840280145e-02    1.0901740625e+05
    1.1860790662e-02    1.1013696875e+05
    1.1881321669e-02    1.1110131250e+05
    1.1901874095e-02    1.1183987500e+05
    1.1922447011e-02    1.1230669531e+05
    1.1943042278e-02    1.1249097656e+05
    1.1963658035e-02    1.1240058594e+05
    1.1984295212e-02    1.1208127344e+05
    1.2004952878e-02    1.1157241406e+05
    1.2025631964e-02    1.1093827344e+05
    1.2046331540e-02    1.1022896094e+05
    1.2067052536e-02    1.0949847656e+05
    1.2087795883e-02    1.0880946094e+05
    1.2108558789e-02    1.0818081250e+05
    1.2129344046e-02    1.0764760156e+05
    1.2150149792e-02    1.0720349219e+05
    1.2170976959e-02    1.0683544531e+05
    1.2191825546e-02    1.0650624219e+05
    1.2212695554e-02    1.0618035156e+05
    1.2233586982e-02    1.0582743750e+05
    1.2254500762e-02    1.0542710156e+05
    1.2275436893e-02    1.0496911719e+05
    1.2296394445e-02    1.0446588281e+05
    1.2317374349e-02    1.0392534375e+05
    1.2338375673e-02    1.0337233594e+05
    1.2359398417e-02    1.0282082031e+05
    1.2380442582e-02    1.0230000781e+05
    1.2401508167e-02    1.0182035156e+05
    1.2422595173e-02    1.0139218750e+05
    1.2443703599e-02    1.0102696875e+05
    1.2464834377e-02    1.0071867969e+05
    1.2485986575e-02    1.0044800000e+05
    1.2507158332e-02    1.0021271094e+05
    1.2528351508e-02    1.0000263281e+05
    1.2549565174e-02    9.9809835938e+04
    1.2570801191e-02    9.9632757812e+04
    1.2592058629e-02    9.9471367188e+04
    1.2613337487e-02    9.9327976562e+04
    1.2634636834e-02    9.9198539062e+04
    1.2655957602e-02    9.9089601562e+04
    1.2677297927e-02    9.9004804688e+04
    1.2698660605e-02    9.8941250000e+04
    1.2720043771e-02    9.8902367188e+04
    1.2741449289e-02    9.8883773438e+04
    1.2762876227e-02    9.8881789062e+04
    1.2784325518e-02    9.8894468750e+04
    1.2805794366e-02    9.8909562500e+04
    1.2827285565e-02    9.8918226562e+04
    1.2848797254e-02    9.8910242188e+04
    1.2870330364e-02    9.8880656250e+04
    1.2891885825e-02    9.8828851562e+04
    1.2913462706e-02    9.8766007812e+04
    1.2935061008e-02    9.8686382812e+04
    1.2956679799e-02    9.8607523438e+04
    1.2978320010e-02    9.8532343750e+04
    1.2999981642e-02    9.8485343750e+04
    1.3021663763e-02    9.8472398438e+04
    1.3043368235e-02    9.8498210938e+04
    1.3065092266e-02    9.8556273438e+04
    1.3086837716e-02    9.8641851562e+04
    1.3108605519e-02    9.8741304688e+04
    1.3130392879e-02    9.8844164062e+04
    1.3152201660e-02    9.8944250000e+04
    1.3174032792e-02    9.9027460938e+04
    1.3195885345e-02    9.9091210938e+04
    1.3217759319e-02    9.9134289062e+04
    1.3239653781e-02    9.9162726562e+04
    1.3261569664e-02    9.9184406250e+04
    1.3283506967e-02    9.9205960938e+04
    1.3305463828e-02    9.9237101562e+04
    1.3327440247e-02    9.9272476562e+04
    1.3349435292e-02    9.9324210938e+04
    1.3371448033e-02    9.9390101562e+04
    1.3393475674e-02    9.9453773438e+04
    1.3415516354e-02    9.9527804688e+04
    1.3437564485e-02    9.9603476562e+04
    1.3459613547e-02    9.9676664062e+04
    1.3481658883e-02    9.9750250000e+04
    1.3503690250e-02    9.9817007812e+04
    1.3525702059e-02    9.9888210938e+04
    1.3547683135e-02    9.9952835938e+04
    1.3569628820e-02    1.0002833594e+05
    1.3591531664e-02    1.0010160156e+05
    1.3613392599e-02    1.0017592969e+05
    1.3635210693e-02    1.0025865625e+05
    1.3656994328e-02    1.0034952344e+05
    1.3678749092e-02    1.0044425000e+05
    1.3700488023e-02    1.0054128125e+05
    1.3722228818e-02    1.0064902344e+05
    1.3743981719e-02    1.0075585156e+05
    1.3765762560e-02    1.0085987500e+05
    1.3787578791e-02    1.0097018750e+05
    1.3809437864e-02    1.0107063281e+05
    1.3831341639e-02    1.0116327344e+05
    1.3853288256e-02    1.0125744531e+05
    1.3875273056e-02    1.0133628906e+05
    1.3897285797e-02    1.0140059375e+05
    1.3919321820e-02    1.0146080469e+05
    1.3941374607e-02    1.0150991406e+05
    1.3963440433e-02    1.0154406250e+05
    1.3985517435e-02    1.0157702344e+05
    1.4007603750e-02    1.0158974219e+05
    1.4029704034e-02    1.0159977344e+05
    1.4051820152e-02    1.0159294531e+05
    1.4073957689e-02    1.0157792969e+05
    1.4096121304e-02    1.0156021875e+05
    1.4118315652e-02    1.0153061719e+05
    1.4140545391e-02    1.0149849219e+05
    1.4162814245e-02    1.0146147656e+05
    1.4185124077e-02    1.0142469531e+05
    1.4207473956e-02    1.0138338281e+05
    1.4229862019e-02    1.0133699219e+05
    1.4252286404e-02    1.0129255469e+05
    1.4274741523e-02    1.0125072656e+05
    1.4297228307e-02    1.0119811719e+05
    1.4319745824e-02    1.0114571875e+05
    1.4342290349e-02    1.0109522656e+05
    1.4364863746e-02    1.0104062500e+05
    1.4387467876e-02    1.0098246094e+05
    1.4410103671e-02    1.0092124219e+05
    1.4432771131e-02    1.0086585156e+05
    1.4455472119e-02    1.0080882031e+05
    1.4478209428e-02    1.0075222656e+05
    1.4500979334e-02    1.0069458594e+05
    1.4523783699e-02    1.0064350000e+05
    1.4546621591e-02    1.0059707031e+05
    1.4569494873e-02    1.0055681250e+05
    1.4592399821e-02    1.0052267969e+05
    1.4615339227e-02    1.0049031250e+05
    1.4638305642e-02    1.0046921094e+05
    1.4661304653e-02    1.0044652344e+05
    1.4684336260e-02    1.0043659375e+05
    1.4707398601e-02    1.0043214844e+05
    1.4730494469e-02    1.0043696094e+05
    1.4753622934e-02    1.0043936719e+05
    1.4776783995e-02    1.0045375000e+05
    1.4799979515e-02    1.0047083594e+05
    1.4823205769e-02    1.0049333594e+05
    1.4846466482e-02    1.0052422656e+05
    1.4869757928e-02    1.0055799219e+05
    1.4893081971e-02    1.0060302344e+05
    1.4916437678e-02    1.0065150000e+05
    1.4939822257e-02    1.0070458594e+05
    1.4963239431e-02    1.0075435156e+05
    1.4986685477e-02    1.0081286719e+05
    1.5010161325e-02    1.0087041406e+05
    1.5033668838e-02    1.0092271094e+05
    1.5057205223e-02    1.0096696094e+05
    1.5080772340e-02    1.0100521094e+05
    1.5104367398e-02    1.0103478125e+05
    1.5127992257e-02    1.0104903906e+05
    1.5151646920e-02    1.0105881250e+05
    1.5175330453e-02    1.0106075000e+05
    1.5199041925e-02    1.0105934375e+05
    1.5222782269e-02    1.0105206250e+05
    1.5246548690e-02    1.0104049219e+05
    1.5270343982e-02    1.0102782031e+05
    1.5294168144e-02    1.0101503906e+05
    1.5318016522e-02    1.0100606250e+05
    1.5341891907e-02    1.0100585156e+05
    1.5365792438e-02    1.0100169531e+05
    1.5389721841e-02    1.0100863281e+05
    1.5413676389e-02    1.0101271094e+05
    1.5437657945e-02    1.0102175000e+05
    1.5461664647e-02    1.0103122656e+05
    1.5485695563e-02    1.0104147656e+05
    1.5509752557e-02    1.0105352344e+05
    1.5533835627e-02    1.0106541406e+05
    1.5557944775e-02    1.0107989844e+05
    1.5582079068e-02    1.0109735156e+05
    1.5606240369e-02    1.0111471094e+05
    1.5630424023e-02    1.0113189844e+05
    1.5654634684e-02    1.0114921094e+05
    1.5678871423e-02    1.0116472656e+05
    1.5703132376e-02    1.0118593750e+05
    1.5727419406e-02    1.0120575781e+05
    1.5751728788e-02    1.0123365625e+05
    1.5776060522e-02    1.0125915625e+05
    1.5800418332e-02    1.0128013281e+05
    1.5824800357e-02    1.0129647656e+05
    1.5849204734e-02    1.0132053125e+05
    1.5873633325e-02    1.0133561719e+05
    1.5898084268e-02    1.0135061719e+05
    1.5922557563e-02    1.0136427344e+05
    1.5947058797e-02    1.0137259375e+05
    1.5971582383e-02    1.0138202344e+05
    1.5996130183e-02    1.0139627344e+05
    1.6020702198e-02    1.0140375781e+05
    1.6045298427e-02    1.0141649219e+05
    1.6069920734e-02    1.0142372656e+05
    1.6094569117e-02    1.0143639844e+05
    1.6119243577e-02    1.0144596875e+05
    1.6143942252e-02    1.0145628125e+05
    1.6168667004e-02    1.0146109375e+05
    1.6193419695e-02    1.0147428906e+05
    1.6218200326e-02    1.0147813281e+05
    1.6243007034e-02    1.0148171094e+05
    1.6267839819e-02    1.0148415625e+05
    1.6292702407e-02    1.0149496094e+05
    1.6317596659e-02    1.0149519531e+05
    1.6342513263e-02    1.0150427344e+05
    1.6367461532e-02    1.0151285156e+05
    1.6392435879e-02    1.0152124219e+05
    1.6417443752e-02    1.0153468750e+05
    1.6442479566e-02    1.0154906250e+05
    1.6467543319e-02    1.0156825781e+05
    1.6492636874e-02    1.0158839844e+05
    1.6517756507e-02    1.0160918750e+05
    1.6542907804e-02    1.0163100781e+05
    1.6568088904e-02    1.0165288281e+05
    1.6593271866e-02    1.0167611719e+05
    1.6618426889e-02    1.0169616406e+05
    1.6643559560e-02    1.0171696094e+05
    1.6668669879e-02    1.0174377344e+05
    1.6693757847e-02    1.0175963281e+05
    1.6718825325e-02    1.0177567969e+05
    1.6743874177e-02    1.0179083594e+05
    1.6768900678e-02    1.0181078906e+05
    1.6793908551e-02    1.0182987500e+05
    1.6818899661e-02    1.0184406250e+05
    1.6843874007e-02    1.0185524219e+05
    1.6868829727e-02    1.0186535156e+05
    1.6893770546e-02    1.0187702344e+05
    1.6918692738e-02    1.0188171094e+05
    1.6943598166e-02    1.0188483594e+05
    1.6968490556e-02    1.0187972656e+05
    1.6993366182e-02    1.0187346875e+05
    1.7018226907e-02    1.0186556250e+05
    1.7043072730e-02    1.0186611719e+05
    1.7067901790e-02    1.0186089844e+05
    1.7092714086e-02    1.0184230469e+05
    1.7117511481e-02    1.0183602344e+05
    1.7142292112e-02    1.0182785156e+05
    1.7167057842e-02    1.0182139844e+05
    1.7191808671e-02    1.0181974219e+05
    1.7216544598e-02    1.0181608594e+05
    1.7241263762e-02    1.0181321875e+05
    1.7265968025e-02    1.0182009375e+05
    1.7290659249e-02    1.0182261719e+05
    1.7315333709e-02    1.0182703125e+05
    1.7339993268e-02    1.0182662500e+05
    1.7364639789e-02    1.0183535156e+05
    1.7389267683e-02    1.0183524219e+05
    1.7413880676e-02    1.0184460156e+05
    1.7438478768e-02    1.0185503906e+05
    1.7463061959e-02    1.0186827344e+05
    1.7487626523e-02    1.0188746094e+05
    1.7512176186e-02    1.0191034375e+05
    1.7536709085e-02    1.0193985156e+05
    1.7561223358e-02    1.0199210156e+05
    1.7585720867e-02    1.0205371094e+05
    1.7610201612e-02    1.0213047656e+05
    1.7634663731e-02    1.0222434375e+05
    1.7659107223e-02    1.0234072656e+05
    1.7683532089e-02    1.0246969531e+05
    1.7707940191e-02    1.0261227344e+05
    1.7732329667e-02    1.0276000000e+05
    1.7756698653e-02    1.0290617969e+05
    1.7781050876e-02    1.0304603906e+05
    1.7805384472e-02    1.0316599219e+05
    1.7829699442e-02    1.0326503906e+05
    1.7853999510e-02    1.0332717969e+05
    1.7878280953e-02    1.0335208594e+05
    1.7902545631e-02    1.0333953906e+05
    1.7926793545e-02    1.0327665625e+05
    1.7951028422e-02    1.0317421875e+05
    1.7975246534e-02    1.0302513281e+05
    1.7999447882e-02    1.0283121875e+05
    1.8023636192e-02    1.0259753906e+05
    1.8047811463e-02    1.0233653906e+05
    1.8071975559e-02    1.0205371094e+05
    1.8096126616e-02    1.0176694531e+05
    1.8120266497e-02    1.0149766406e+05
    1.8144397065e-02    1.0124933594e+05
    1.8168520182e-02    1.0103553906e+05
    1.8192630261e-02    1.0085037500e+05
    1.8216732889e-02    1.0070016406e+05
    1.8240824342e-02    1.0057297656e+05
    1.8264908344e-02    1.0048532031e+05
    1.8288983032e-02    1.0042574219e+05
    1.8313048407e-02    1.0039165625e+05
    1.8337102607e-02    1.0038422656e+05
    1.8361147493e-02    1.0039810156e+05
    1.8385183066e-02    1.0043191406e+05
    1.8409207463e-02    1.0049321875e+05
    1.8433224410e-02    1.0055534375e+05
    1.8457230181e-02    1.0063487500e+05
    1.8481226638e-02    1.0071982031e+05
    1.8505210057e-02    1.0080071094e+05
    1.8529184163e-02    1.0088660156e+05
    1.8553148955e-02    1.0097441406e+05
    1.8577100709e-02    1.0106109375e+05
    1.8601041287e-02    1.0114352344e+05
    1.8624972552e-02    1.0121989844e+05
    1.8648892641e-02    1.0128869531e+05
    1.8672801554e-02    1.0134547656e+05
    1.8696699291e-02    1.0139081250e+05
    1.8720587716e-02    1.0143417969e+05
    1.8744463101e-02    1.0147358594e+05
    1.8768329173e-02    1.0151475781e+05
    1.8792184070e-02    1.0156097656e+05
    1.8816027790e-02    1.0160824219e+05
    1.8839860335e-02    1.0166131250e+05
    1.8863683566e-02    1.0172186719e+05
    1.8887493759e-02    1.0178441406e+05
    1.8911294639e-02    1.0185878906e+05
    1.8935086206e-02    1.0193160156e+05
    1.8958866596e-02    1.0201310156e+05
    1.8982635811e-02    1.0209789844e+05
    1.9006397575e-02    1.0218368750e+05
    1.9030146301e-02    1.0226633594e+05
    1.9053885713e-02    1.0234857031e+05
    1.9077615812e-02    1.0242291406e+05
    1.9101334736e-02    1.0249389844e+05
    1.9125042483e-02    1.0256378125e+05
    1.9148740917e-02    1.0263542969e+05
    1.9172428176e-02    1.0269664844e+05
    1.9196104258e-02    1.0275652344e+05
    1.9219771028e-02    1.0281075000e+05
    1.9243424758e-02    1.0285903906e+05
    1.9267069176e-02    1.0289000000e+05
    1.9290700555e-02    1.0292214844e+05
    1.9314322621e-02    1.0293538281e+05
    1.9337931648e-02    1.0294632031e+05
    1.9361529499e-02    1.0294767969e+05
    1.9385114312e-02    1.0294203906e+05
    1.9408687949e-02    1.0292534375e+05
    1.9432250410e-02    1.0290687500e+05
    1.9455801696e-02    1.0287883594e+05
    1.9479339942e-02    1.0285066406e+05
    1.9502865151e-02    1.0282189844e+05
    1.9526379183e-02    1.0278933594e+05
    1.9549878314e-02    1.0276264844e+05
    1.9573366269e-02    1.0273041406e+05
    1.9596841186e-02    1.0270432031e+05
    1.9620303065e-02    1.0266809375e+05
    1.9643751904e-02    1.0263666406e+05
    1.9667187706e-02    1.0260819531e+05
    1.9690606743e-02    1.0258502344e+05
    1.9714014605e-02    1.0256021094e+05
    1.9737409428e-02    1.0253521094e+05
    1.9760791212e-02    1.0251349219e+05
    1.9784159958e-02    1.0248740625e+05
    1.9807513803e-02    1.0246060156e+05
    1.9830854610e-02    1.0244278906e+05
    1.9854182377e-02    1.0242511719e+05
    1.9877497107e-02    1.0240753125e+05
    1.9900798798e-02    1.0239763281e+05
    1.9924087450e-02    1.0237307031e+05
    1.9947361201e-02    1.0235600781e+05
    1.9970623776e-02    1.0233875781e+05
    1.9993871450e-02    1.0232113281e+05
    2.0017107949e-02    1.0231046094e+05
    2.0040329546e-02    1.0229578906e+05
    2.0063538104e-02    1.0227921094e+05
    2.0086731762e-02    1.0227222656e+05
    2.0109914243e-02    1.0225619531e+05
    2.0133081824e-02    1.0224021094e+05
    2.0156236365e-02    1.0222871094e+05
    2.0179376006e-02    1.0221374219e+05
    2.0202504471e-02    1.0220046094e+05
    2.0225618035e-02    1.0218712500e+05
    2.0248720422e-02    1.0217150781e+05
    2.0271807909e-02    1.0215141406e+05
    2.0294882357e-02    1.0212996094e+05
    2.0317947492e-02    1.0211311719e+05
    2.0340997726e-02    1.0210256250e+05
    2.0364036784e-02    1.0208737500e+05
    2.0387060940e-02    1.0207696094e+05
    2.0410073921e-02    1.0206296094e+05
    2.0433073863e-02    1.0204844531e+05
    2.0456060767e-02    1.0202706250e+05
    2.0479036495e-02    1.0201992969e+05
    2.0501999184e-02    1.0201066406e+05
    2.0524948835e-02    1.0201314844e+05
    2.0547885448e-02    1.0201196094e+05
    2.0570809022e-02    1.0201230469e+05
    2.0593719557e-02    1.0200803906e+05
    2.0616617054e-02    1.0199978906e+05
    2.0639499649e-02    1.0199628906e+05
    2.0662369207e-02    1.0199236719e+05
    2.0685223863e-02    1.0199364844e+05
    2.0708063617e-02    1.0199152344e+05
    2.0730890334e-02    1.0198821094e+05
    2.0753700286e-02    1.0198494531e+05
    2.0776495337e-02    1.0197990625e+05
    2.0799275488e-02    1.0196525781e+05
    2.0822042599e-02    1.0195496094e+05
    2.0844791085e-02    1.0194002344e+05
    2.0867524669e-02    1.0193300000e+05
    2.0890241489e-02    1.0191975781e+05
    2.0912945271e-02    1.0190596875e+05
    2.0935632288e-02    1.0189064844e+05
    2.0958306268e-02    1.0186781250e+05
    2.0980965346e-02    1.0184836719e+05
    2.1003607661e-02    1.0183077344e+05
    2.1026238799e-02    1.0180328906e+05
    2.1048855036e-02    1.0178111719e+05
    2.1071458235e-02    1.0176288281e+05
    2.1094048396e-02    1.0174366406e+05
    2.1116625518e-02    1.0172546094e+05
    2.1139191464e-02    1.0171485156e+05
    2.1161744371e-02    1.0170808594e+05
    2.1184286103e-02    1.0170385156e+05
    2.1206818521e-02    1.0170177344e+05
    2.1229337901e-02    1.0170902344e+05
    2.1251846105e-02    1.0172349219e+05
    2.1274344996e-02    1.0174253125e+05
    2.1296832711e-02    1.0175985156e+05
    2.1319312975e-02    1.0178621094e+05
    2.1341778338e-02    1.0181097656e+05
    2.1364232525e-02    1.0184819531e+05
    2.1386675537e-02    1.0188839844e+05
    2.1409107372e-02    1.0192668750e+05
    2.1431528032e-02    1.0196609375e+05
    2.1453931928e-02    1.0200692969e+05
    2.1476324648e-02    1.0204122656e+05
    2.1498700604e-02    1.0208541406e+05
    2.1521063522e-02    1.0212578906e+05
    2.1543409675e-02    1.0216615625e+05
    2.1565740928e-02    1.0219725000e+05
    2.1588053554e-02    1.0223074219e+05
    2.1610351279e-02    1.0225921094e+05
    2.1632634103e-02    1.0228610156e+05
    2.1654898301e-02    1.0230687500e+05
    2.1677147597e-02    1.0233024219e+05
    2.1699378267e-02    1.0235005469e+05
    2.1721594036e-02    1.0236278125e+05
    2.1743793041e-02    1.0238044531e+05
    2.1765975282e-02    1.0239118750e+05
    2.1788140759e-02    1.0240062500e+05
    2.1810289472e-02    1.0240291406e+05
    2.1832419559e-02    1.0240071094e+05
    2.1854531020e-02    1.0239997656e+05
    2.1876627579e-02    1.0239660156e+05
    2.1898705512e-02    1.0239378906e+05
    2.1920768544e-02    1.0237528906e+05
    2.1942811087e-02    1.0236293750e+05
    2.1964838728e-02    1.0234821094e+05
    2.1986849606e-02    1.0233100781e+05
    2.2008845583e-02    1.0230716406e+05
    2.2030822933e-02    1.0227797656e+05
    2.2052785382e-02    1.0224675781e+05
    2.2074732929e-02    1.0222160156e+05
    2.2096665576e-02    1.0220046094e+05
    2.2118583322e-02    1.0217366406e+05
    2.2140489891e-02    1.0214605469e+05
    2.2162377834e-02    1.0211375781e+05
    2.2184254602e-02    1.0208499219e+05
    2.2206118330e-02    1.0206627344e+05
    2.2227969021e-02    1.0204858594e+05
    2.2249806672e-02    1.0203196094e+05
    2.2271629423e-02    1.0201689844e+05
    2.2293440998e-02    1.0200753906e+05
    2.2315241396e-02    1.0199228906e+05
    2.2337028757e-02    1.0198728906e+05
    2.2358803079e-02    1.0197694531e+05
    2.2380566224e-02    1.0197341406e+05
    2.2402318195e-02    1.0197590625e+05
    2.2424057126e-02    1.0198061719e+05
    2.2445784882e-02    1.0198690625e+05
    2.2467501462e-02    1.0199435156e+05
    2.2489206865e-02    1.0199377344e+05
    2.2510899231e-02    1.0200331250e+05
    2.2532582283e-02    1.0200871875e+05
    2.2554252297e-02    1.0202024219e+05
    2.2575911134e-02    1.0202847656e+05
    2.2597560659e-02    1.0204167969e+05
    2.2619199008e-02    1.0204507031e+05
    2.2640828043e-02    1.0205050000e+05
    2.2662445903e-02    1.0205639844e+05
    2.2684050724e-02    1.0206894531e+05
    2.2705646232e-02    1.0207277344e+05
    2.2727232426e-02    1.0207616406e+05
    2.2748809308e-02    1.0207933594e+05
    2.2770375013e-02    1.0207431250e+05
    2.2791929543e-02    1.0207415625e+05
    2.2813472897e-02    1.0207728125e+05
    2.2835006937e-02    1.0207989844e+05
    2.2856531665e-02    1.0207628906e+05
    2.2878047079e-02    1.0207610156e+05
    2.2899549454e-02    1.0206641406e+05
    2.2921044379e-02    1.0206528906e+05
    2.2942528129e-02    1.0205547656e+05
    2.2964000702e-02    1.0205500781e+05
    2.2985465825e-02    1.0205752344e+05
    2.3006917909e-02    1.0206489844e+05
    2.3028360680e-02    1.0206641406e+05
    2.3049792275e-02    1.0205850000e+05
    2.3071214557e-02    1.0206544531e+05
    2.3092625663e-02    1.0207177344e+05
    2.3114029318e-02    1.0207453125e+05
    2.3135419935e-02    1.0207818750e+05
    2.3156799376e-02    1.0208734375e+05
    2.3178169504e-02    1.0209621875e+05
    2.3199530318e-02    1.0210611719e+05
    2.3220879957e-02    1.0211365625e+05
    2.3242218420e-02    1.0212111719e+05
    2.3263547570e-02    1.0212639844e+05
    2.3284865543e-02    1.0214125781e+05
    2.3306174204e-02    1.0215725781e+05
    2.3327469826e-02    1.0216890625e+05
    2.3348756135e-02    1.0218134375e+05
    2.3370031267e-02    1.0219816406e+05
    2.3391297087e-02    1.0220596094e+05
    2.3412553594e-02    1.0221732031e+05
    2.3433798924e-02    1.0223446094e+05
    2.3455033079e-02    1.0224825000e+05
    2.3476256058e-02    1.0226686719e+05
    2.3497469723e-02    1.0228564844e+05
    2.3518672213e-02    1.0230058594e+05
    2.3539865389e-02    1.0232089844e+05
    2.3561049253e-02    1.0233797656e+05
    2.3582221940e-02    1.0235921875e+05
    2.3603385314e-02    1.0237722656e+05
    2.3624535650e-02    1.0239640625e+05
    2.3645676672e-02    1.0242083594e+05
    2.3666808382e-02    1.0243627344e+05
    2.3687927052e-02    1.0245153906e+05
    2.3709038273e-02    1.0246708594e+05
    2.3730138317e-02    1.0248228906e+05
    2.3751227185e-02    1.0249749219e+05
    2.3772306740e-02    1.0250275000e+05
    2.3793375120e-02    1.0251596094e+05
    2.3814432323e-02    1.0250900781e+05
    2.3835480213e-02    1.0250738281e+05
    2.3856516927e-02    1.0249637500e+05
    2.3877544329e-02    1.0247841406e+05
    2.3898560554e-02    1.0246008594e+05
    2.3919565603e-02    1.0244161719e+05
    2.3940561339e-02    1.0241128125e+05
    2.3961545900e-02    1.0238747656e+05
    2.3982519284e-02    1.0234685156e+05
    2.4003483355e-02    1.0230164844e+05
    2.4024436250e-02    1.0225771875e+05
    2.4045377970e-02    1.0220139844e+05
    2.4066310376e-02    1.0215075000e+05
    2.4087233469e-02    1.0210741406e+05
    2.4108145386e-02    1.0206415625e+05
    2.4129044265e-02    1.0203414844e+05
    2.4149935693e-02    1.0199693750e+05
    2.4170814082e-02    1.0197465625e+05
    2.4191683158e-02    1.0195952344e+05
    2.4212542921e-02    1.0194614844e+05
    2.4233391508e-02    1.0194692969e+05
    2.4254228920e-02    1.0195846094e+05
    2.4275057018e-02    1.0197566406e+05
    2.4295873940e-02    1.0199943750e+05
    2.4316681549e-02    1.0202921875e+05
    2.4337477982e-02    1.0205305469e+05
    2.4358265102e-02    1.0208027344e+05
    2.4379042909e-02    1.0211021875e+05
    2.4399809539e-02    1.0213778906e+05
    2.4420566857e-02    1.0216849219e+05
    2.4441312999e-02    1.0219135156e+05
    2.4462047964e-02    1.0221622656e+05
    2.4482775480e-02    1.0223078125e+05
    2.4503491819e-02    1.0224964844e+05
    2.4524198845e-02    1.0227159375e+05
    2.4544894695e-02    1.0228461719e+05
    2.4565581232e-02    1.0230766406e+05
    2.4586258456e-02    1.0232178906e+05
    2.4606924504e-02    1.0233565625e+05
    2.4627581239e-02    1.0234928906e+05
    2.4648228660e-02    1.0236288281e+05
    2.4668866768e-02    1.0237647656e+05
    2.4689495564e-02    1.0239032031e+05
    2.4710113183e-02    1.0240446875e+05
    2.4730721489e-02    1.0241855469e+05
    2.4751318619e-02    1.0243722656e+05
    2.4771906435e-02    1.0245755469e+05
    2.4792486802e-02    1.0247303906e+05
    2.4813055992e-02    1.0248883594e+05
    2.4833614007e-02    1.0250425781e+05
    2.4854162708e-02    1.0251887500e+05
    2.4874702096e-02    1.0252346875e+05
    2.4895232171e-02    1.0252925000e+05
    2.4915752932e-02    1.0253937500e+05
    2.4936262518e-02    1.0254139844e+05
    2.4956764653e-02    1.0254228906e+05
    2.4977253750e-02    1.0253744531e+05
    2.4997735396e-02    1.0253282031e+05
    2.5018205866e-02    1.0252708594e+05
    2.5038668886e-02    1.0252230469e+05
    2.5059120730e-02    1.0250727344e+05
    2.5079563260e-02    1.0249511719e+05
    2.5099996477e-02    1.0248384375e+05
    2.5120420381e-02    1.0247115625e+05
    2.5140833110e-02    1.0245521094e+05
    2.5161236525e-02    1.0244193750e+05
    2.5181630626e-02    1.0242712500e+05
    2.5202017277e-02    1.0240900781e+05
    2.5222390890e-02    1.0239941406e+05
    2.5242757052e-02    1.0238236719e+05
    2.5263112038e-02    1.0236425000e+05
    2.5283459574e-02    1.0235494531e+05
    2.5303795934e-02    1.0233591406e+05
    2.5324124843e-02    1.0232353906e+05
    2.5344440714e-02    1.0230546875e+05
    2.5364749134e-02    1.0229467969e+05
    2.5385048240e-02    1.0229366406e+05
    2.5405339897e-02    1.0228433594e+05
    2.5425618514e-02    1.0227519531e+05
    2.5445887819e-02    1.0227550781e+05
    2.5466147810e-02    1.0226689844e+05
    2.5486400351e-02    1.0225828906e+05
    2.5506639853e-02    1.0224940625e+05
    2.5526873767e-02    1.0224109375e+05
    2.5547094643e-02    1.0223272656e+05
    2.5567308068e-02    1.0223435156e+05
    2.5587510318e-02    1.0223158594e+05
    2.5607703254e-02    1.0223047656e+05
    2.5627886876e-02    1.0223435156e+05
    2.5648061186e-02    1.0222921875e+05
    2.5668226182e-02    1.0222872656e+05
    2.5688380003e-02    1.0222878906e+05
    2.5708526373e-02    1.0222421094e+05
    2.5728661567e-02    1.0221980469e+05
    2.5748789310e-02    1.0221517969e+05
    2.5768904015e-02    1.0221510156e+05
    2.5789011270e-02    1.0221653906e+05
    2.5809109211e-02    1.0221800781e+05
    2.5829195976e-02    1.0222102344e+05
    2.5849273428e-02    1.0222342969e+05
    2.5869343430e-02    1.0222685156e+05
    2.5889402255e-02    1.0222531250e+05
    2.5909451768e-02    1.0223310156e+05
    2.5929493830e-02    1.0223242969e+05
    2.5949522853e-02    1.0223191406e+05
    2.5969544426e-02    1.0223149219e+05
    2.5989556685e-02    1.0223080469e+05
    2.6009559631e-02    1.0223128125e+05
    2.6029553264e-02    1.0223628906e+05
    2.6049537584e-02    1.0224268750e+05
    2.6069512591e-02    1.0224839844e+05
    2.6089478284e-02    1.0225521094e+05
    2.6109432802e-02    1.0225739844e+05
    2.6129379869e-02    1.0225941406e+05
    2.6149315760e-02    1.0226196094e+05
    2.6169244200e-02    1.0226444531e+05
    2.6189163327e-02    1.0226908594e+05
    2.6209073141e-02    1.0227877344e+05
    2.6228975505e-02    1.0228166406e+05
    2.6248866692e-02    1.0228456250e+05
    2.6268748567e-02    1.0228428906e+05
    2.6288621128e-02    1.0228624219e+05
    2.6308484375e-02    1.0228577344e+05
    2.6328338310e-02    1.0229305469e+05
    2.6348184794e-02    1.0229535156e+05
    2.6368021965e-02    1.0229744531e+05
    2.6387847960e-02    1.0229928906e+05
    2.6407664642e-02    1.0229178125e+05
    2.6427472010e-02    1.0229560156e+05
    2.6447271928e-02    1.0229561719e+05
    2.6467062533e-02    1.0230202344e+05
    2.6486843824e-02    1.0230650781e+05
    2.6506617665e-02    1.0230146875e+05
    2.6526380330e-02    1.0230261719e+05
    2.6546133682e-02    1.0230321094e+05
    2.6565877721e-02    1.0230384375e+05
    2.6585612446e-02    1.0230227344e+05
    2.6605339721e-02    1.0229655469e+05
    2.6625057682e-02    1.0229799219e+05
    2.6644766331e-02    1.0229936719e+05
    2.6664465666e-02    1.0231003906e+05
    2.6684155688e-02    1.0231122656e+05
    2.6703836396e-02    1.0231225781e+05
    2.6723509654e-02    1.0230833594e+05
    2.6743173599e-02    1.0230497656e+05
    2.6762828231e-02    1.0230622656e+05
    2.6782475412e-02    1.0230757031e+05
    2.6802113280e-02    1.0231316406e+05
    2.6821739972e-02    1.0231863281e+05
    2.6841359213e-02    1.0231977344e+05
    2.6860967278e-02    1.0231403906e+05
    2.6880569756e-02    1.0231341406e+05
    2.6900164783e-02    1.0232165625e+05
    2.6919748634e-02    1.0232050000e+05
    2.6939325035e-02    1.0231800781e+05
    2.6958892122e-02    1.0232875781e+05
    2.6978449896e-02    1.0233024219e+05
    2.6997998357e-02    1.0232708594e+05
    2.7017539367e-02    1.0232878906e+05
    2.7037071064e-02    1.0233203906e+05
    2.7056595311e-02    1.0233600000e+05
    2.7076110244e-02    1.0233760156e+05
    2.7095617726e-02    1.0233433594e+05
    2.7115115896e-02    1.0233122656e+05
    2.7134604752e-02    1.0234175000e+05
    2.7154086158e-02    1.0234321094e+05
    2.7173558250e-02    1.0234433594e+05
    2.7193021029e-02    1.0234506250e+05
    2.7212476358e-02    1.0233850000e+05
    2.7231922373e-02    1.0233697656e+05
    2.7251357213e-02    1.0234477344e+05
    2.7270786464e-02    1.0234367969e+05
    2.7290204540e-02    1.0234028125e+05
    2.7309613302e-02    1.0235002344e+05
    2.7329014614e-02    1.0234146094e+05
    2.7348404750e-02    1.0234208594e+05
    2.7367785573e-02    1.0234244531e+05
    2.7387158945e-02    1.0234288281e+05
    2.7406521142e-02    1.0234299219e+05
    2.7425874025e-02    1.0234310156e+05
    2.7445219457e-02    1.0234240625e+05
    2.7464553714e-02    1.0234222656e+05
    2.7483878657e-02    1.0234164844e+05
    2.7503194287e-02    1.0234077344e+05
    2.7522502467e-02    1.0234005469e+05
    2.7541799471e-02    1.0233921875e+05
    2.7561087161e-02    1.0233816406e+05
    2.7580365539e-02    1.0233766406e+05
    2.7599634603e-02    1.0233740625e+05
    2.7618894354e-02    1.0233510156e+05
    2.7638144791e-02    1.0233730469e+05
    2.7657385916e-02    1.0233738281e+05
    2.7676619589e-02    1.0233740625e+05
    2.7695843950e-02    1.0233769531e+05
    2.7715058997e-02    1.0234772656e+05
    2.7734262869e-02    1.0234874219e+05
    2.7753459290e-02    1.0234974219e+05
    2.7772648260e-02    1.0234364844e+05
    2.7791827917e-02    1.0234194531e+05
    2.7810998261e-02    1.0234275000e+05
    2.7830159292e-02    1.0235217969e+05
    2.7849311009e-02    1.0235278906e+05
    2.7868455276e-02    1.0234627344e+05
    2.7887590230e-02    1.0234455469e+05
    2.7906717733e-02    1.0234760156e+05
    2.7925835922e-02    1.0235036719e+05
    2.7944946662e-02    1.0234796875e+05
    2.7964048088e-02    1.0235055469e+05
    2.7983140200e-02    1.0234671094e+05
    2.8002224863e-02    1.0234696094e+05
    2.8021300212e-02    1.0234912500e+05
    2.8040368110e-02    1.0234722656e+05
    2.8059426695e-02    1.0234728906e+05
    2.8078475967e-02    1.0234721094e+05
    2.8097519651e-02    1.0234746094e+05
    2.8116554022e-02    1.0234752344e+05
    2.8135580942e-02    1.0234712500e+05
    2.8154598549e-02    1.0234650000e+05
    2.8173606843e-02    1.0234575781e+05
    2.8192607686e-02    1.0234510156e+05
    2.8211599216e-02    1.0234458594e+05
    2.8230583295e-02    1.0234416406e+05
    2.8249559924e-02    1.0234435156e+05
    2.8268527240e-02    1.0235433594e+05
    2.8287487105e-02    1.0235485156e+05
    2.8306435794e-02    1.0235257031e+05
    2.8325378895e-02    1.0234553125e+05
    2.8344312683e-02    1.0234568750e+05
    2.8363237157e-02    1.0235294531e+05
    2.8382156044e-02    1.0235502344e+05
    2.8401065618e-02    1.0235491406e+05
    2.8419965878e-02    1.0234941406e+05
    2.8438858688e-02    1.0234460156e+05
    2.8457742184e-02    1.0234371094e+05
    2.8476616368e-02    1.0234318750e+05
    2.8495483100e-02    1.0234778906e+05
    2.8514338657e-02    1.0235291406e+05
    2.8533160686e-02    1.0235353906e+05
    2.8551930562e-02    1.0235384375e+05
    2.8570635244e-02    1.0234475781e+05
    2.8589271009e-02    1.0234428125e+05
    2.8607837856e-02    1.0234403125e+05
    2.8626350686e-02    1.0234375000e+05
    2.8644818813e-02    1.0234780469e+05
    2.8663259000e-02    1.0234814844e+05
    2.8681686148e-02    1.0234424219e+05
    2.8700113297e-02    1.0234432031e+05
    2.8718546033e-02    1.0234397656e+05
    2.8736986220e-02    1.0234364844e+05
    2.8755431995e-02    1.0233346875e+05
    2.8773877770e-02    1.0233225000e+05
    2.8792314231e-02    1.0234053906e+05
    2.8810730204e-02    1.0234014844e+05
    2.8829116374e-02    1.0233725781e+05
    2.8847465292e-02    1.0232989844e+05
    2.8865773231e-02    1.0233124219e+05
    2.8884036466e-02    1.0233030469e+05
    2.8902258724e-02    1.0232735156e+05
    2.8920443729e-02    1.0232677344e+05
    2.8938598931e-02    1.0232653906e+05
    2.8956729919e-02    1.0232646094e+05
    2.8974846005e-02    1.0232643750e+05
    2.8992949054e-02    1.0232627344e+05
    2.9011042789e-02    1.0232621875e+05
    2.9029129073e-02    1.0232578906e+05
    2.9047204182e-02    1.0232955469e+05
    2.9065268114e-02    1.0232659375e+05
    2.9083315283e-02    1.0232350781e+05
    2.9101338238e-02    1.0232260156e+05
    2.9119335115e-02    1.0232182031e+05
    2.9137304053e-02    1.0232077344e+05
    2.9155241325e-02    1.0232416406e+05
    2.9173148796e-02    1.0232343750e+05
    2.9191024601e-02    1.0232299219e+05
    2.9208874330e-02    1.0232765625e+05
    2.9226697981e-02    1.0232760156e+05
    2.9244501144e-02    1.0232299219e+05
    2.9262285680e-02    1.0232486719e+05
    2.9280053452e-02    1.0232415625e+05
    2.9297806323e-02    1.0232169531e+05
    2.9315544292e-02    1.0232387500e+05
    2.9333265498e-02    1.0232662500e+05
    2.9350971803e-02    1.0232677344e+05
    2.9368655756e-02    1.0232689844e+05
    2.9386319220e-02    1.0232702344e+05
    2.9403960332e-02    1.0233447656e+05
    2.9421577230e-02    1.0233789844e+05
    2.9439168051e-02    1.0233421875e+05
    2.9456734657e-02    1.0233260156e+05
    2.9474277049e-02    1.0233364844e+05
    2.9491795227e-02    1.0233185156e+05
    2.9509292915e-02    1.0233260156e+05
    2.9526771978e-02    1.0233603906e+05
    2.9544232413e-02    1.0234021875e+05
    2.9561674222e-02    1.0234228906e+05
    2.9579099268e-02    1.0234939844e+05
    2.9596509412e-02    1.0235021875e+05
    2.9613900930e-02    1.0235100000e+05
    2.9631273821e-02    1.0235362500e+05
    2.9648626223e-02    1.0235624219e+05
    2.9665958136e-02    1.0235910156e+05
    2.9683271423e-02    1.0235685156e+05
    2.9700560495e-02    1.0236003906e+05
    2.9717829078e-02    1.0236569531e+05
    2.9735075310e-02    1.0236950781e+05
    2.9752301052e-02    1.0237065625e+05
    2.9769508168e-02    1.0237433594e+05
    2.9786696658e-02    1.0237784375e+05
    2.9803866521e-02    1.0238116406e+05
    2.9821017757e-02    1.0237463281e+05
    2.9838152230e-02    1.0237685156e+05
    2.9855269939e-02    1.0236946094e+05
    2.9872370884e-02    1.0237053906e+05
    2.9889453202e-02    1.0236635156e+05
    2.9906518757e-02    1.0236193750e+05
    2.9923565686e-02    1.0236165625e+05
    2.9940593988e-02    1.0235874219e+05
    2.9957601801e-02    1.0235303906e+05
    2.9974590987e-02    1.0234978906e+05
    2.9991561547e-02    1.0234817969e+05
    3.0008511618e-02    1.0234125000e+05
    3.0025444925e-02    1.0233691406e+05
    3.0042361468e-02    1.0233228906e+05
    3.0059259385e-02    1.0232978125e+05
    3.0076142401e-02    1.0233124219e+05
    3.0093006790e-02    1.0232850000e+05
    3.0109854415e-02    1.0232614844e+05
    3.0126683414e-02    1.0232632031e+05
    3.0143497512e-02    1.0232678906e+05
    3.0160292983e-02    1.0233446094e+05
    3.0177071691e-02    1.0233322656e+05
    3.0193833634e-02    1.0234180469e+05
    3.0210576952e-02    1.0235103906e+05
    3.0227303505e-02    1.0235389844e+05
    3.0244011432e-02    1.0236208594e+05
    3.0260702595e-02    1.0236760156e+05
    3.0277376994e-02    1.0237432031e+05
    3.0294034630e-02    1.0237641406e+05
    3.0310675502e-02    1.0238309375e+05
    3.0327299610e-02    1.0239078906e+05
    3.0343905091e-02    1.0239411719e+05
    3.0360495672e-02    1.0240697656e+05
    3.0377071351e-02    1.0241086719e+05
    3.0393628404e-02    1.0241513281e+05
    3.0410168692e-02    1.0241971094e+05
    3.0426690355e-02    1.0242346094e+05
    3.0443195254e-02    1.0242746875e+05
    3.0459685251e-02    1.0243150781e+05
    3.0476156622e-02    1.0243539844e+05
    3.0492611229e-02    1.0243884375e+05
    3.0509050936e-02    1.0243285156e+05
    3.0525473878e-02    1.0243557031e+05
    3.0541881919e-02    1.0243827344e+05
    3.0558273196e-02    1.0243868750e+05
    3.0574647710e-02    1.0243637500e+05
    3.0591005459e-02    1.0243575781e+05
    3.0607348308e-02    1.0243722656e+05
    3.0623674393e-02    1.0242908594e+05
    3.0639985576e-02    1.0242981250e+05
    3.0656279996e-02    1.0242325781e+05
    3.0672557652e-02    1.0242143750e+05
    3.0688818544e-02    1.0242163281e+05
    3.0705062672e-02    1.0242203906e+05
    3.0721291900e-02    1.0242241406e+05
    3.0737506226e-02    1.0242263281e+05
    3.0753703788e-02    1.0242263281e+05
    3.0769886449e-02    1.0241262500e+05
    3.0786054209e-02    1.0241133594e+05
    3.0802207068e-02    1.0240059375e+05
    3.0818343163e-02    1.0239832031e+05
    3.0834466219e-02    1.0239383594e+05
    3.0850572512e-02    1.0238666406e+05
    3.0866663903e-02    1.0238152344e+05
    3.0882738531e-02    1.0237871875e+05
    3.0898798257e-02    1.0237633594e+05
    3.0914843082e-02    1.0236835156e+05
    3.0930871144e-02    1.0236068750e+05
    3.0946886167e-02    1.0235721094e+05
    3.0962884426e-02    1.0235335156e+05
    3.0978867784e-02    1.0234958594e+05
    3.0994836241e-02    1.0234118750e+05
    3.1010789797e-02    1.0233411719e+05
    3.1026728451e-02    1.0233225781e+05
    3.1042650342e-02    1.0233060156e+05
    3.1058559194e-02    1.0232646875e+05
    3.1074455008e-02    1.0231574219e+05
    3.1090334058e-02    1.0231406250e+05
    3.1106200069e-02    1.0231678906e+05
    3.1122051179e-02    1.0231278125e+05
    3.1137887388e-02    1.0230888281e+05
    3.1153710559e-02    1.0230280469e+05
    3.1169516966e-02    1.0229932031e+05
    3.1185310334e-02    1.0229307031e+05
    3.1201090664e-02    1.0228949219e+05
    3.1216854230e-02    1.0229057031e+05
    3.1232602894e-02    1.0228700781e+05
    3.1248336658e-02    1.0228367969e+05
    3.1264055520e-02    1.0228527344e+05
    3.1279761344e-02    1.0228767969e+05
    3.1295452267e-02    1.0229016406e+05
    3.1311132014e-02    1.0228861719e+05
    3.1326796860e-02    1.0229228906e+05
    3.1342446804e-02    1.0229078906e+05
    3.1358085573e-02    1.0228921875e+05
    3.1373709440e-02    1.0228585156e+05
    3.1389318407e-02    1.0228649219e+05
    3.1404916197e-02    1.0228503906e+05
    3.1420499086e-02    1.0228402344e+05
    3.1436067075e-02    1.0228353125e+05
    3.1451620162e-02    1.0229271094e+05
    3.1467158347e-02    1.0230036719e+05
    3.1482685357e-02    1.0230431250e+05
    3.1498193741e-02    1.0230649219e+05
    3.1513694674e-02    1.0231825000e+05
    3.1529176980e-02    1.0232099219e+05
    3.1544648111e-02    1.0232402344e+05
    3.1560108066e-02    1.0232709375e+05
    3.1575553119e-02    1.0233022656e+05
    3.1590986997e-02    1.0233361719e+05
    3.1606405973e-02    1.0234222656e+05
    3.1621813774e-02    1.0235036719e+05
    3.1637206674e-02    1.0235453125e+05
    3.1652588397e-02    1.0235875000e+05
    3.1667951494e-02    1.0236296875e+05
    3.1683307141e-02    1.0235775000e+05
    3.1698647887e-02    1.0236103125e+05
    3.1713977456e-02    1.0236427344e+05
    3.1729292125e-02    1.0236788281e+05
    3.1744595617e-02    1.0238050000e+05
    3.1759884208e-02    1.0238225781e+05
    3.1775161624e-02    1.0238125781e+05
    3.1790427864e-02    1.0238283594e+05
    3.1805675477e-02    1.0238908594e+05
    3.1820915639e-02    1.0240014844e+05
    3.1836140901e-02    1.0240405469e+05
    3.1851354986e-02    1.0240321094e+05
    3.1866557896e-02    1.0240290625e+05
    3.1881745905e-02    1.0241139844e+05
    3.1896922737e-02    1.0241496094e+05
    3.1912088394e-02    1.0241813281e+05
    3.1927239150e-02    1.0241900781e+05
    3.1942378730e-02    1.0242197656e+05
    3.1957507133e-02    1.0242296094e+05
    3.1972620636e-02    1.0242584375e+05
    3.1987726688e-02    1.0242905469e+05
    3.2002814114e-02    1.0243191406e+05
    3.2017890364e-02    1.0242981250e+05
    3.2032959163e-02    1.0242789844e+05
    3.2048013061e-02    1.0243016406e+05
    3.2063052058e-02    1.0243271875e+05
    3.2078083605e-02    1.0243531250e+05
    3.2093103975e-02    1.0243831250e+05
    3.2108109444e-02    1.0244133594e+05
    3.2123107463e-02    1.0244918750e+05
    3.2138090581e-02    1.0245225781e+05
    3.2153062522e-02    1.0245758594e+05
    3.2168023288e-02    1.0246252344e+05
    3.2182972878e-02    1.0246277344e+05
    3.2197911292e-02    1.0246097656e+05
    3.2212834805e-02    1.0246162500e+05
    3.2227750868e-02    1.0246428125e+05
    3.2242652029e-02    1.0246719531e+05
    3.2257542014e-02    1.0247034375e+05
    3.2272424549e-02    1.0247322656e+05
    3.2287292182e-02    1.0247646094e+05
    3.2302148640e-02    1.0247946875e+05
    3.2316997647e-02    1.0248278125e+05
    3.2331831753e-02    1.0248624219e+05
    3.2346658409e-02    1.0248934375e+05
    3.2361470163e-02    1.0249252344e+05
    3.2376270741e-02    1.0249571094e+05
    3.2391063869e-02    1.0249860156e+05
    3.2405842096e-02    1.0250128906e+05
    3.2420612872e-02    1.0250357031e+05
    3.2435368747e-02    1.0250566406e+05
    3.2450113446e-02    1.0250235156e+05
    3.2464850694e-02    1.0250155469e+05
    3.2479573041e-02    1.0250280469e+05
    3.2494287938e-02    1.0250153906e+05
    3.2508991659e-02    1.0250183594e+05
    3.2523684204e-02    1.0250433594e+05
    3.2538365573e-02    1.0250205469e+05
    3.2553035766e-02    1.0250177344e+05
    3.2567698509e-02    1.0250149219e+05
    3.2582346350e-02    1.0250093750e+05
    3.2596986741e-02    1.0249803906e+05
    3.2611619681e-02    1.0249478906e+05
    3.2626237720e-02    1.0249318750e+05
    3.2640848309e-02    1.0248453906e+05
    3.2655447721e-02    1.0247943750e+05
    3.2670035958e-02    1.0247614844e+05
    3.2684613019e-02    1.0246806250e+05
    3.2699178904e-02    1.0246415625e+05
    3.2713737339e-02    1.0246000000e+05
    3.2728284597e-02    1.0245569531e+05
    3.2742820680e-02    1.0245134375e+05
    3.2757349312e-02    1.0244685156e+05
    3.2771866769e-02    1.0244227344e+05
    3.2786373049e-02    1.0243278125e+05
    3.2800871879e-02    1.0242769531e+05
    3.2815355808e-02    1.0241806250e+05
    3.2829832286e-02    1.0241203125e+05
    3.2844301313e-02    1.0240089844e+05
    3.2858755440e-02    1.0239427344e+05
    3.2873202115e-02    1.0238830469e+05
    3.2887637615e-02    1.0237953906e+05
    3.2902065665e-02    1.0237596094e+05
    3.2916482538e-02    1.0237025781e+05
    3.2930891961e-02    1.0236466406e+05
    3.2945290208e-02    1.0236156250e+05
    3.2959677279e-02    1.0235886719e+05
    3.2974056900e-02    1.0235459375e+05
    3.2988425344e-02    1.0235072656e+05
    3.3002786338e-02    1.0234739844e+05
    3.3017136157e-02    1.0234478906e+05
    3.3031478524e-02    1.0234247656e+05
    3.3045809716e-02    1.0234552344e+05
    3.3060129732e-02    1.0234464844e+05
    3.3074442297e-02    1.0234642969e+05
    3.3088747412e-02    1.0235332031e+05
    3.3103041351e-02    1.0235406250e+05
    3.3117324114e-02    1.0235566406e+05
    3.3131599426e-02    1.0236749219e+05
    3.3145863563e-02    1.0237055469e+05
    3.3160120249e-02    1.0237381250e+05
    3.3174365759e-02    1.0238196875e+05
    3.3188603818e-02    1.0238577344e+05
    3.3202830702e-02    1.0239240625e+05
    3.3217050135e-02    1.0239927344e+05
    3.3231258392e-02    1.0240396875e+05
    3.3245459199e-02    1.0241347656e+05
    3.3259648830e-02    1.0242114844e+05
    3.3273831010e-02    1.0242916406e+05
    3.3288005739e-02    1.0243459375e+05
    3.3302169293e-02    1.0244475000e+05
    3.3316325396e-02    1.0245009375e+05
    3.3330474049e-02    1.0245503906e+05
    3.3344611526e-02    1.0246033594e+05
    3.3358741552e-02    1.0246519531e+05
    3.3372864127e-02    1.0246507031e+05
    3.3386975527e-02    1.0246708594e+05
    3.3401079476e-02    1.0247089844e+05
    3.3415172249e-02    1.0247669531e+05
    3.3429257572e-02    1.0247997656e+05
    3.3443335444e-02    1.0248528906e+05
    3.3457405865e-02    1.0248137500e+05
    3.3471468836e-02    1.0248386719e+05
    3.3485524356e-02    1.0248866406e+05
    3.3499568701e-02    1.0248878125e+05
    3.3513605595e-02    1.0249072656e+05
    3.3527631313e-02    1.0249224219e+05
    3.3541653305e-02    1.0248885156e+05
    3.3555664122e-02    1.0248964844e+05
    3.3569667488e-02    1.0248984375e+05
    3.3583663404e-02    1.0248047656e+05
    3.3597648144e-02    1.0247960156e+05
    3.3611625433e-02    1.0247859375e+05
    3.3625595272e-02    1.0247685156e+05
    3.3639557660e-02    1.0247514844e+05
    3.3653512597e-02    1.0246896094e+05
    3.3667460084e-02    1.0246715625e+05
    3.3681396395e-02    1.0246506250e+05
    3.3695328981e-02    1.0246280469e+05
    3.3709254116e-02    1.0246027344e+05
    3.3723168075e-02    1.0245302344e+05
    3.3737078309e-02    1.0245035156e+05
    3.3750977367e-02    1.0244328906e+05
    3.3764872700e-02    1.0244064844e+05
    3.3778760582e-02    1.0243775000e+05
    3.3792637289e-02    1.0243493750e+05
    3.3806510270e-02    1.0243266406e+05
    3.3820372075e-02    1.0243071094e+05
    3.3834230155e-02    1.0243378125e+05
    3.3848077059e-02    1.0243721875e+05
    3.3861916512e-02    1.0243636719e+05
    3.3875752240e-02    1.0243300000e+05
    3.3889576793e-02    1.0242478906e+05
    3.3903393894e-02    1.0242384375e+05
    3.3917203546e-02    1.0242284375e+05
    3.3931009471e-02    1.0242183594e+05
    3.3944804221e-02    1.0242366406e+05
    3.3958595246e-02    1.0242517969e+05
    3.3972378820e-02    1.0242642969e+05
    3.3986151218e-02    1.0242831250e+05
    3.3999919891e-02    1.0242771094e+05
    3.4013681114e-02    1.0242764844e+05
    3.4027434886e-02    1.0242739844e+05
    3.4041177481e-02    1.0242730469e+05
    3.4054916352e-02    1.0242683594e+05
    3.4068647772e-02    1.0242661719e+05
    3.4082375467e-02    1.0242646094e+05
    3.4096091986e-02    1.0242891406e+05
    3.4109804779e-02    1.0243146094e+05
    3.4123510122e-02    1.0242934375e+05
    3.4137208015e-02    1.0242727344e+05
    3.4150898457e-02    1.0242763281e+05
    3.4164581448e-02    1.0242785156e+05
    3.4178260714e-02    1.0243514844e+05
    3.4191932529e-02    1.0243538281e+05
    3.4205596894e-02    1.0243327344e+05
    3.4219253808e-02    1.0242890625e+05
    3.4232903272e-02    1.0242822656e+05
    3.4246545285e-02    1.0242772656e+05
    3.4260183573e-02    1.0242703906e+05
    3.4273810685e-02    1.0242638281e+05
    3.4287434071e-02    1.0242560156e+05
    3.4301050007e-02    1.0242516406e+05
    3.4314658493e-02    1.0242494531e+05
    3.4328263253e-02    1.0242668750e+05
    3.4341860563e-02    1.0242422656e+05
    3.4355450422e-02    1.0242407031e+05
    3.4369036555e-02    1.0242356250e+05
    3.4382611513e-02    1.0242289844e+05
    3.4396182746e-02    1.0242222656e+05
    3.4409742802e-02    1.0242086719e+05
    3.4423299134e-02    1.0241999219e+05
    3.4436848015e-02    1.0241869531e+05
    3.4450393170e-02    1.0241746094e+05
    3.4463927150e-02    1.0241672656e+05
    3.4477461129e-02    1.0241542969e+05
    3.4490987659e-02    1.0241468750e+05
    3.4504506737e-02    1.0241385156e+05
    3.4518022090e-02    1.0241297656e+05
    3.4531529993e-02    1.0241271094e+05
    3.4545030445e-02    1.0241236719e+05
    3.4558523446e-02    1.0241207031e+05
    3.4572008997e-02    1.0241197656e+05
    3.4585487098e-02    1.0241218750e+05
    3.4598957747e-02    1.0241211719e+05
    3.4612424672e-02    1.0241471875e+05
    3.4625884145e-02    1.0241521875e+05
    3.4639336169e-02    1.0241774219e+05
    3.4652780741e-02    1.0242052344e+05
    3.4666225314e-02    1.0241875000e+05
    3.4679658711e-02    1.0241958594e+05
    3.4693088382e-02    1.0242008594e+05
    3.4706510603e-02    1.0241610156e+05
    3.4719929099e-02    1.0241622656e+05
    3.4733340144e-02    1.0241635156e+05
    3.4746743739e-02    1.0241903906e+05
    3.4760143608e-02    1.0242610156e+05
    3.4773536026e-02    1.0242622656e+05
    3.4786924720e-02    1.0242621875e+05
    3.4800305963e-02    1.0242660156e+05
    3.4813679755e-02    1.0242174219e+05
    3.4827046096e-02    1.0242189844e+05
    3.4840408713e-02    1.0242003906e+05
    3.4853763878e-02    1.0242235156e+05
    3.4867111593e-02    1.0242484375e+05
    3.4880455583e-02    1.0241987500e+05
    3.4893795848e-02    1.0242677344e+05
    3.4907124937e-02    1.0242691406e+05
    3.4920454025e-02    1.0242461719e+05
    3.4933775663e-02    1.0242434375e+05
    3.4947093576e-02    1.0242428125e+05
    3.4960404038e-02    1.0242639844e+05
    3.4973710775e-02    1.0242627344e+05
    3.4987010062e-02    1.0242372656e+05
endcurve
