Curveplot
LS-DYNA keyword deck by LS-PrePost                          
Time
Pressure
Defined Connection
Pressure @ 19 #pts=1745
* Minval=     9.8757812500e+04 at time=         0.0130650923
* Maxval=     1.7081182812e+05 at time=         0.0061353650
    0.0000000000e+00    9.9998085938e+04
    3.3812357287e-05    9.9998085938e+04
    6.1326652940e-05    9.9998000000e+04
    8.9102875791e-05    9.9998687500e+04
    1.1682785407e-04    9.9998835938e+04
    1.4461828687e-04    9.9998851562e+04
    1.7236733402e-04    9.9999414062e+04
    2.0016246708e-04    1.0000888281e+05
    2.2795486439e-04    1.0000046875e+05
    2.5574557367e-04    1.0000065625e+05
    2.8353667585e-04    1.0000064844e+05
    3.1133697485e-04    9.9990976562e+04
    3.3912662184e-04    9.9999437500e+04
    3.6691734567e-04    9.9999882812e+04
    3.9470891352e-04    1.0000028906e+05
    4.2249175021e-04    1.0000764844e+05
    4.5027161832e-04    1.0000125781e+05
    4.7804549104e-04    1.0000124219e+05
    5.0581363030e-04    1.0000103125e+05
    5.3357944125e-04    1.0000078125e+05
    5.6134146871e-04    9.9991335938e+04
    5.8909942163e-04    9.9992351562e+04
    6.1685312539e-04    9.9999351562e+04
    6.4460188150e-04    1.0000756250e+05
    6.7234638846e-04    1.0001139844e+05
    7.0008635521e-04    1.0000346875e+05
    7.2782178177e-04    9.9999875000e+04
    7.5555208605e-04    9.9993914062e+04
    7.8327720985e-04    9.9997718750e+04
    8.1099680392e-04    9.9998289062e+04
    8.3871174138e-04    1.0000153125e+05
    8.6642213864e-04    1.0000197656e+05
    8.9412782108e-04    1.0000177344e+05
    9.2182843946e-04    1.0000110156e+05
    9.4952445943e-04    9.9995585938e+04
    9.7721535712e-04    9.9990320312e+04
    1.0049008997e-03    9.9998976562e+04
    1.0325826006e-03    1.0000466406e+05
    1.0602590628e-03    1.0001057031e+05
    1.0879321489e-03    1.0000900781e+05
    1.1155996472e-03    1.0000203125e+05
    1.1432634201e-03    9.9992023438e+04
    1.1709230021e-03    9.9990750000e+04
    1.1985785095e-03    9.9992968750e+04
    1.2262313394e-03    9.9999906250e+04
    1.2538790470e-03    1.0001002344e+05
    1.2815232622e-03    1.0001139844e+05
    1.3091630535e-03    1.0000383594e+05
    1.3368004002e-03    1.0000552344e+05
    1.3644339051e-03    1.0000478125e+05
    1.3920635683e-03    1.0002049219e+05
    1.4196902048e-03    1.0005080469e+05
    1.4473132323e-03    1.0010210156e+05
    1.4749332331e-03    1.0019000000e+05
    1.5025498578e-03    1.0032512500e+05
    1.5301633393e-03    1.0051857031e+05
    1.5577742597e-03    1.0077263281e+05
    1.5853822697e-03    1.0109846875e+05
    1.6129877185e-03    1.0147000781e+05
    1.6405890929e-03    1.0186650781e+05
    1.6681876732e-03    1.0225021875e+05
    1.6957829939e-03    1.0259962500e+05
    1.7233766848e-03    1.0287011719e+05
    1.7509678146e-03    1.0305027344e+05
    1.7785291420e-03    1.0313675000e+05
    1.8060547300e-03    1.0312956250e+05
    1.8335470231e-03    1.0305174219e+05
    1.8610082334e-03    1.0292014844e+05
    1.8884401070e-03    1.0275577344e+05
    1.9158447394e-03    1.0258086719e+05
    1.9432241097e-03    1.0242543750e+05
    1.9705800805e-03    1.0229459375e+05
    1.9979148638e-03    1.0221352344e+05
    2.0252298564e-03    1.0219314844e+05
    2.0525271539e-03    1.0221391406e+05
    2.0798076876e-03    1.0227391406e+05
    2.1070730872e-03    1.0234652344e+05
    2.1343247499e-03    1.0241630469e+05
    2.1615643054e-03    1.0247852344e+05
    2.1887931507e-03    1.0252608594e+05
    2.2160108201e-03    1.0254455469e+05
    2.2432196420e-03    1.0254271094e+05
    2.2704207804e-03    1.0251728906e+05
    2.2976147011e-03    1.0247975000e+05
    2.3248014040e-03    1.0243916406e+05
    2.3519827519e-03    1.0241264844e+05
    2.3791582789e-03    1.0239296875e+05
    2.4063293822e-03    1.0238477344e+05
    2.4334960617e-03    1.0238824219e+05
    2.4606597144e-03    1.0240014844e+05
    2.4878205732e-03    1.0240993750e+05
    2.5149781723e-03    1.0242947656e+05
    2.5421329774e-03    1.0244041406e+05
    2.5692859199e-03    1.0244608594e+05
    2.5964374654e-03    1.0244640625e+05
    2.6235871483e-03    1.0244203125e+05
    2.6507352013e-03    1.0243569531e+05
    2.6778825559e-03    1.0243312500e+05
    2.7050296776e-03    1.0242130469e+05
    2.7321761008e-03    1.0241525000e+05
    2.7593218256e-03    1.0241502344e+05
    2.7864677832e-03    1.0242114844e+05
    2.8136142064e-03    1.0242337500e+05
    2.8407603968e-03    1.0243533594e+05
    2.8679079842e-03    1.0244860156e+05
    2.8950548731e-03    1.0246211719e+05
    2.9222022276e-03    1.0248664844e+05
    2.9493502807e-03    1.0251327344e+05
    2.9764990322e-03    1.0257150000e+05
    3.0036487151e-03    1.0264000000e+05
    3.0307997949e-03    1.0272422656e+05
    3.0579508748e-03    1.0281171094e+05
    3.0851035845e-03    1.0291571094e+05
    3.1122572254e-03    1.0302611719e+05
    3.1394117977e-03    1.0312360156e+05
    3.1665677670e-03    1.0320502344e+05
    3.1937246677e-03    1.0326053906e+05
    3.2208829653e-03    1.0330085156e+05
    3.2480424270e-03    1.0330205469e+05
    3.2752046827e-03    1.0328962500e+05
    3.2952371985e-03    1.0325546094e+05
    3.3145032357e-03    1.0322639844e+05
    3.3336398192e-03    1.0318841406e+05
    3.3528339118e-03    1.0314613281e+05
    3.3720366191e-03    1.0310266406e+05
    3.3912549261e-03    1.0306297656e+05
    3.4104890656e-03    1.0301821875e+05
    3.4297339153e-03    1.0297575781e+05
    3.4486323129e-03    1.0293152344e+05
    3.4671388566e-03    1.0287867969e+05
    3.4854323603e-03    1.0283119531e+05
    3.5036695190e-03    1.0277035156e+05
    3.5219141282e-03    1.0270099219e+05
    3.5401545465e-03    1.0263233594e+05
    3.5583588760e-03    1.0256471875e+05
    3.5765271168e-03    1.0249812500e+05
    3.5946895368e-03    1.0243637500e+05
    3.6139658187e-03    1.0237821875e+05
    3.6330535077e-03    1.0232856250e+05
    3.6521453876e-03    1.0228409375e+05
    3.6699753255e-03    1.0225007031e+05
    3.6875614896e-03    1.0222300000e+05
    3.7050142419e-03    1.0220272656e+05
    3.7224807311e-03    1.0218739844e+05
    3.7400643341e-03    1.0217444531e+05
    3.7577797193e-03    1.0216619531e+05
    3.7755726371e-03    1.0214866406e+05
    3.7933769636e-03    1.0214233594e+05
    3.8111612666e-03    1.0213799219e+05
    3.8289318327e-03    1.0213567969e+05
    3.8467168342e-03    1.0213260156e+05
    3.8645383902e-03    1.0212597656e+05
    3.8824023213e-03    1.0211800781e+05
    3.9002960548e-03    1.0210813281e+05
    3.9182156324e-03    1.0209377344e+05
    3.9361710660e-03    1.0207671094e+05
    3.9541716687e-03    1.0204997656e+05
    3.9733103476e-03    1.0203222656e+05
    3.9924201556e-03    1.0201452344e+05
    4.0104058571e-03    1.0200199219e+05
    4.0284004062e-03    1.0199096094e+05
    4.0464363992e-03    1.0198592969e+05
    4.0656095371e-03    1.0198253906e+05
    4.0847789496e-03    1.0198109375e+05
    4.1039343923e-03    1.0197671875e+05
    4.1219722480e-03    1.0197377344e+05
    4.1400394402e-03    1.0197253906e+05
    4.1591953486e-03    1.0197817969e+05
    4.1784178466e-03    1.0198677344e+05
    4.1976389475e-03    1.0200302344e+05
    4.2168586515e-03    1.0201860156e+05
    4.2360713705e-03    1.0204114844e+05
    4.2552771047e-03    1.0206786719e+05
    4.2744791135e-03    1.0210183594e+05
    4.2936825193e-03    1.0214049219e+05
    4.3128933758e-03    1.0218875781e+05
    4.3321144767e-03    1.0224158594e+05
    4.3513495475e-03    1.0230344531e+05
    4.3705995195e-03    1.0236447656e+05
    4.3898657896e-03    1.0243225000e+05
    4.4091497548e-03    1.0249858594e+05
    4.4284537435e-03    1.0255742969e+05
    4.4477786869e-03    1.0261047656e+05
    4.4671236537e-03    1.0265265625e+05
    4.4864914380e-03    1.0267746094e+05
    4.5058806427e-03    1.0268397656e+05
    4.5252908021e-03    1.0266363281e+05
    4.5447219163e-03    1.0262328125e+05
    4.5641721226e-03    1.0255653906e+05
    4.5836409554e-03    1.0246709375e+05
    4.6031279489e-03    1.0235000000e+05
    4.6226321720e-03    1.0220983594e+05
    4.6421540901e-03    1.0204567969e+05
    4.6616927721e-03    1.0185610156e+05
    4.6812482178e-03    1.0165477344e+05
    4.7008208930e-03    1.0144207031e+05
    4.7204112634e-03    1.0122339844e+05
    4.7400193289e-03    1.0100914844e+05
    4.7596455552e-03    1.0080114844e+05
    4.7792894766e-03    1.0060897656e+05
    4.7989510931e-03    1.0042796875e+05
    4.8186304048e-03    1.0027108594e+05
    4.8383255489e-03    1.0013885156e+05
    4.8580355942e-03    1.0002603125e+05
    4.8777610064e-03    9.9942570312e+04
    4.8975008540e-03    9.9882820312e+04
    4.9172551371e-03    9.9849117188e+04
    4.9370229244e-03    9.9834273438e+04
    4.9568060786e-03    9.9833242188e+04
    4.9766036682e-03    9.9844804688e+04
    4.9964170903e-03    9.9862335938e+04
    5.0162458792e-03    9.9897664062e+04
    5.0360900350e-03    9.9930648438e+04
    5.0559476949e-03    9.9970742188e+04
    5.0758207217e-03    1.0001196094e+05
    5.0957072526e-03    1.0005333594e+05
    5.1156077534e-03    1.0008310156e+05
    5.1355226897e-03    1.0011344531e+05
    5.1554525271e-03    1.0013678906e+05
    5.1753963344e-03    1.0015003906e+05
    5.1953555085e-03    1.0016366406e+05
    5.2153295837e-03    1.0016903906e+05
    5.2353194915e-03    1.0016559375e+05
    5.2553247660e-03    1.0016696094e+05
    5.2753463387e-03    1.0015691406e+05
    5.2953832783e-03    1.0014669531e+05
    5.3154369816e-03    1.0013207031e+05
    5.3355065174e-03    1.0011328906e+05
    5.3555918857e-03    1.0009012500e+05
    5.3756926209e-03    1.0006564844e+05
    5.3958082572e-03    1.0004221094e+05
    5.4159392603e-03    1.0001577344e+05
    5.4360851645e-03    9.9993023438e+04
    5.4562464356e-03    9.9970414062e+04
    5.4764230736e-03    9.9950648438e+04
    5.4966160096e-03    9.9931398438e+04
    5.5168238468e-03    9.9918726562e+04
    5.5370470509e-03    9.9910656250e+04
    5.5572865531e-03    9.9910820312e+04
    5.5775423534e-03    9.9909781250e+04
    5.5978130549e-03    9.9926210938e+04
    5.6181000546e-03    9.9941429688e+04
    5.6384028867e-03    9.9960031250e+04
    5.6587206200e-03    9.9984117188e+04
    5.6790532544e-03    1.0001763281e+05
    5.6994007900e-03    1.0005175000e+05
    5.7197632268e-03    1.0008181250e+05
    5.7401410304e-03    1.0011790625e+05
    5.7605337352e-03    1.0015110156e+05
    5.7809422724e-03    1.0018028125e+05
    5.8013652451e-03    1.0021950000e+05
    5.8218040504e-03    1.0025519531e+05
    5.8422577567e-03    1.0030697656e+05
    5.8627268299e-03    1.0038625000e+05
    5.8832112700e-03    1.0054283594e+05
    5.9037101455e-03    1.0088263281e+05
    5.9242248535e-03    1.0163382031e+05
    5.9447535314e-03    1.0327921875e+05
    5.9641525149e-03    1.0661468750e+05
    5.9830932878e-03    1.1216269531e+05
    6.0020405799e-03    1.2026510156e+05
    6.0210367665e-03    1.3075383594e+05
    6.0400799848e-03    1.4242656250e+05
    6.0591096990e-03    1.5348259375e+05
    6.0781282373e-03    1.6220001562e+05
    6.0972142965e-03    1.6780195312e+05
    6.1162756756e-03    1.7043285938e+05
    6.1353649944e-03    1.7081182812e+05
    6.1544459313e-03    1.6989321875e+05
    6.1734300107e-03    1.6844820312e+05
    6.1924448237e-03    1.6701865625e+05
    6.2115197070e-03    1.6575679688e+05
    6.2306127511e-03    1.6457132812e+05
    6.2497169711e-03    1.6332312500e+05
    6.2688281760e-03    1.6194182812e+05
    6.2879407778e-03    1.6038484375e+05
    6.3070552424e-03    1.5869368750e+05
    6.3261794858e-03    1.5693765625e+05
    6.3453060575e-03    1.5516853125e+05
    6.3644465990e-03    1.5344023438e+05
    6.3835908659e-03    1.5178389062e+05
    6.4027444459e-03    1.5019512500e+05
    6.4219115302e-03    1.4866876562e+05
    6.4410855994e-03    1.4717789062e+05
    6.4602680504e-03    1.4572028125e+05
    6.4794607460e-03    1.4427339062e+05
    6.4986641519e-03    1.4284928125e+05
    6.5178787336e-03    1.4146987500e+05
    6.5371058881e-03    1.4015728125e+05
    6.5563363023e-03    1.3891764062e+05
    6.5755699761e-03    1.3776262500e+05
    6.5948092379e-03    1.3667998438e+05
    6.6140629351e-03    1.3565545312e+05
    6.6333152354e-03    1.3468751562e+05
    6.6525745206e-03    1.3376740625e+05
    6.6718445159e-03    1.3289250000e+05
    6.6911154427e-03    1.3207120312e+05
    6.7104012705e-03    1.3130132812e+05
    6.7296870984e-03    1.3057500781e+05
    6.7489854991e-03    1.2988650000e+05
    6.7682852969e-03    1.2923833594e+05
    6.7875892855e-03    1.2862391406e+05
    6.8069072440e-03    1.2803603906e+05
    6.8262196146e-03    1.2746947656e+05
    6.8455408327e-03    1.2692271094e+05
    6.8648783490e-03    1.2638950781e+05
    6.8842126057e-03    1.2587468750e+05
    6.9035501219e-03    1.2537565625e+05
    6.9228983484e-03    1.2489138281e+05
    6.9422605447e-03    1.2442303125e+05
    6.9616222754e-03    1.2398097656e+05
    6.9809844717e-03    1.2355791406e+05
    7.0003494620e-03    1.2315678125e+05
    7.0197195746e-03    1.2277742969e+05
    7.0390999317e-03    1.2241758594e+05
    7.0584909990e-03    1.2207906250e+05
    7.0778946392e-03    1.2175741406e+05
    7.0973108523e-03    1.2144865625e+05
    7.1167377755e-03    1.2115727344e+05
    7.1361698210e-03    1.2087828125e+05
    7.1556069888e-03    1.2060983594e+05
    7.1750483476e-03    1.2034625781e+05
    7.1944966912e-03    1.2009122656e+05
    7.2139529511e-03    1.1983587500e+05
    7.2334166616e-03    1.1958653906e+05
    7.2528840974e-03    1.1933416406e+05
    7.2723543271e-03    1.1908697656e+05
    7.2918278165e-03    1.1884416406e+05
    7.3113050312e-03    1.1859780469e+05
    7.3307845742e-03    1.1836625000e+05
    7.3502692394e-03    1.1814690625e+05
    7.3697618209e-03    1.1793161719e+05
    7.3892641813e-03    1.1772585156e+05
    7.4087800458e-03    1.1753758594e+05
    7.4282912537e-03    1.1735911719e+05
    7.4477996677e-03    1.1717730469e+05
    7.4673094787e-03    1.1701367969e+05
    7.4868267402e-03    1.1685917969e+05
    7.5063589029e-03    1.1670056250e+05
    7.5258887373e-03    1.1655360156e+05
    7.5454111211e-03    1.1640972656e+05
    7.5649353676e-03    1.1627221094e+05
    7.5844703242e-03    1.1614109375e+05
    7.6040057465e-03    1.1602466406e+05
    7.6235276647e-03    1.1592050000e+05
    7.6430505142e-03    1.1582924219e+05
    7.6625877991e-03    1.1574160156e+05
    7.6821087860e-03    1.1566500000e+05
    7.7016241848e-03    1.1559043750e+05
    7.7211544849e-03    1.1551893750e+05
    7.7406810597e-03    1.1544921094e+05
    7.7602043748e-03    1.1537446094e+05
    7.7797495760e-03    1.1530358594e+05
    7.7992938459e-03    1.1522403125e+05
    7.8188432381e-03    1.1512615625e+05
    7.8384252265e-03    1.1501025000e+05
    7.8580006957e-03    1.1488264844e+05
    7.8775910661e-03    1.1473424219e+05
    7.8972103074e-03    1.1457036719e+05
    7.9168286175e-03    1.1439572656e+05
    7.9364804551e-03    1.1420587500e+05
    7.9561360180e-03    1.1400700781e+05
    7.9758102074e-03    1.1380231250e+05
    7.9955114052e-03    1.1358831250e+05
    8.0152126029e-03    1.1338200781e+05
    8.0349491909e-03    1.1317799219e+05
    8.0546662211e-03    1.1298227344e+05
    8.0743944272e-03    1.1279347656e+05
    8.0941170454e-03    1.1261186719e+05
    8.1138620153e-03    1.1243165625e+05
    8.1336386502e-03    1.1225122656e+05
    8.1534720957e-03    1.1206418750e+05
    8.1733558327e-03    1.1187633594e+05
    8.1932730973e-03    1.1167594531e+05
    8.2132071257e-03    1.1146416406e+05
    8.2330890000e-03    1.1123168750e+05
    8.2529615611e-03    1.1099147656e+05
    8.2727763802e-03    1.1073696875e+05
    8.2926023751e-03    1.1047421094e+05
    8.3124246448e-03    1.1020217969e+05
    8.3322748542e-03    1.0991903906e+05
    8.3521194756e-03    1.0963528125e+05
    8.3719678223e-03    1.0935383594e+05
    8.3917891607e-03    1.0908200781e+05
    8.4116021171e-03    1.0881677344e+05
    8.4314141423e-03    1.0856852344e+05
    8.4512168542e-03    1.0834150781e+05
    8.4710381925e-03    1.0812133594e+05
    8.4908353165e-03    1.0792810156e+05
    8.5106678307e-03    1.0775358594e+05
    8.5304882377e-03    1.0759085156e+05
    8.5503393784e-03    1.0744997656e+05
    8.5699046031e-03    1.0732347656e+05
    8.5892248899e-03    1.0721863281e+05
    8.6083402857e-03    1.0712708594e+05
    8.6272666231e-03    1.0704522656e+05
    8.6460309103e-03    1.0697933594e+05
    8.6646731943e-03    1.0692166406e+05
    8.6832325906e-03    1.0687560156e+05
    8.7017398328e-03    1.0683394531e+05
    8.7202098221e-03    1.0680050781e+05
    8.7386453524e-03    1.0677553906e+05
    8.7570473552e-03    1.0675312500e+05
    8.7753897533e-03    1.0674291406e+05
    8.7936492637e-03    1.0673828906e+05
    8.8118780404e-03    1.0673925781e+05
    8.8300397620e-03    1.0675021094e+05
    8.8481390849e-03    1.0677108594e+05
    8.8662039489e-03    1.0679506250e+05
    8.8842641562e-03    1.0682130469e+05
    8.9023411274e-03    1.0685341406e+05
    8.9204348624e-03    1.0688638281e+05
    8.9385388419e-03    1.0691933594e+05
    8.9566456154e-03    1.0695593750e+05
    8.9747514576e-03    1.0698605469e+05
    8.9928600937e-03    1.0702010156e+05
    9.0109808370e-03    1.0705121094e+05
    9.0291155502e-03    1.0707797656e+05
    9.0472688898e-03    1.0710224219e+05
    9.0654399246e-03    1.0712506250e+05
    9.0836230665e-03    1.0713684375e+05
    9.1018192470e-03    1.0714314844e+05
    9.1200266033e-03    1.0714214844e+05
    9.1382460669e-03    1.0712728125e+05
    9.1564757749e-03    1.0711150781e+05
    9.1747231781e-03    1.0708866406e+05
    9.1929892078e-03    1.0705422656e+05
    9.2112747952e-03    1.0701834375e+05
    9.2295790091e-03    1.0697778906e+05
    9.2479009181e-03    1.0692366406e+05
    9.2662386596e-03    1.0687097656e+05
    9.2845931649e-03    1.0681553906e+05
    9.3029672280e-03    1.0675746875e+05
    9.3213599175e-03    1.0670150000e+05
    9.3397712335e-03    1.0663871094e+05
    9.3582011759e-03    1.0658146875e+05
    9.3766497448e-03    1.0652524219e+05
    9.3951150775e-03    1.0646521094e+05
    9.4135999680e-03    1.0640688281e+05
    9.4321016222e-03    1.0635014844e+05
    9.4506228343e-03    1.0629321094e+05
    9.4691645354e-03    1.0624311719e+05
    9.4877239317e-03    1.0619836719e+05
    9.5063010231e-03    1.0615553125e+05
    9.5248948783e-03    1.0610853125e+05
    9.5435054973e-03    1.0606858594e+05
    9.5621328801e-03    1.0602878125e+05
    9.5807760954e-03    1.0598909375e+05
    9.5994332805e-03    1.0594956250e+05
    9.6181081608e-03    1.0591092969e+05
    9.6367979422e-03    1.0587963281e+05
    9.6555035561e-03    1.0584925781e+05
    9.6742231399e-03    1.0581990625e+05
    9.6929576248e-03    1.0578590625e+05
    9.7117051482e-03    1.0575960156e+05
    9.7304685041e-03    1.0573121875e+05
    9.7492448986e-03    1.0569855469e+05
    9.7680361941e-03    1.0566497656e+05
    9.7868405282e-03    1.0562672656e+05
    9.8056588322e-03    1.0558978906e+05
    9.8244920373e-03    1.0554286719e+05
    9.8433364183e-03    1.0549997656e+05
    9.8621929064e-03    1.0546115625e+05
    9.8810633644e-03    1.0541171875e+05
    9.8999459296e-03    1.0537072656e+05
    9.9188406020e-03    1.0531946875e+05
    9.9377483130e-03    1.0525753125e+05
    9.9566690624e-03    1.0520424219e+05
    9.9756028503e-03    1.0515496094e+05
    9.9945487455e-03    1.0510568750e+05
    1.0013507679e-02    1.0505405469e+05
    1.0032479651e-02    1.0500721094e+05
    1.0051463731e-02    1.0495262500e+05
    1.0070459917e-02    1.0490237500e+05
    1.0089469142e-02    1.0484727344e+05
    1.0108492337e-02    1.0479187500e+05
    1.0127528571e-02    1.0473149219e+05
    1.0146577843e-02    1.0467433594e+05
    1.0165639222e-02    1.0460624219e+05
    1.0184712708e-02    1.0453363281e+05
    1.0203798302e-02    1.0445352344e+05
    1.0222896002e-02    1.0436778906e+05
    1.0242006741e-02    1.0427814844e+05
    1.0261129588e-02    1.0417557031e+05
    1.0280264542e-02    1.0407878906e+05
    1.0299413465e-02    1.0398285156e+05
    1.0318575427e-02    1.0387896094e+05
    1.0337748565e-02    1.0377709375e+05
    1.0356934741e-02    1.0368160156e+05
    1.0376133956e-02    1.0359449219e+05
    1.0395346209e-02    1.0352177344e+05
    1.0414571501e-02    1.0346037500e+05
    1.0433809832e-02    1.0341110156e+05
    1.0453061201e-02    1.0337497656e+05
    1.0472324677e-02    1.0334328906e+05
    1.0491601191e-02    1.0332303906e+05
    1.0510892607e-02    1.0329888281e+05
    1.0530196130e-02    1.0327591406e+05
    1.0549513623e-02    1.0325252344e+05
    1.0568842292e-02    1.0322774219e+05
    1.0588183999e-02    1.0320015625e+05
    1.0607538745e-02    1.0315530469e+05
    1.0626907460e-02    1.0311058594e+05
    1.0646289214e-02    1.0305642969e+05
    1.0665684007e-02    1.0300130469e+05
    1.0685092770e-02    1.0294521094e+05
    1.0704516433e-02    1.0289357031e+05
    1.0723951273e-02    1.0284372656e+05
    1.0743400082e-02    1.0280394531e+05
    1.0762862861e-02    1.0276088281e+05
    1.0782338679e-02    1.0272611719e+05
    1.0801829398e-02    1.0269527344e+05
    1.0821334086e-02    1.0266350000e+05
    1.0840852745e-02    1.0263335156e+05
    1.0860386305e-02    1.0259496094e+05
    1.0879932903e-02    1.0255750781e+05
    1.0899493471e-02    1.0252041406e+05
    1.0919069871e-02    1.0247831250e+05
    1.0938662104e-02    1.0243468750e+05
    1.0958270170e-02    1.0239628906e+05
    1.0977892205e-02    1.0236557031e+05
    1.0997531936e-02    1.0233241406e+05
    1.1017187499e-02    1.0230585156e+05
    1.1036860757e-02    1.0228597656e+05
    1.1056551710e-02    1.0227262500e+05
    1.1076259427e-02    1.0224781250e+05
    1.1095987633e-02    1.0223416406e+05
    1.1115733534e-02    1.0221296875e+05
    1.1135498993e-02    1.0219089844e+05
    1.1155283079e-02    1.0216953906e+05
    1.1175086722e-02    1.0215568750e+05
    1.1194912717e-02    1.0214375781e+05
    1.1214758269e-02    1.0213800781e+05
    1.1234625243e-02    1.0213344531e+05
    1.1254511774e-02    1.0213980469e+05
    1.1274418794e-02    1.0214307031e+05
    1.1294347234e-02    1.0214028906e+05
    1.1314296164e-02    1.0213675781e+05
    1.1334266514e-02    1.0212989844e+05
    1.1354257353e-02    1.0210758594e+05
    1.1374268681e-02    1.0209274219e+05
    1.1394302361e-02    1.0206680469e+05
    1.1414355598e-02    1.0204446875e+05
    1.1434430256e-02    1.0202024219e+05
    1.1454525404e-02    1.0198972656e+05
    1.1474640109e-02    1.0195753125e+05
    1.1494777165e-02    1.0191724219e+05
    1.1514934711e-02    1.0187734375e+05
    1.1535113677e-02    1.0183294531e+05
    1.1555313133e-02    1.0178960156e+05
    1.1575534008e-02    1.0175347656e+05
    1.1595774442e-02    1.0173641406e+05
    1.1616035365e-02    1.0173943750e+05
    1.1636316776e-02    1.0177153906e+05
    1.1656619608e-02    1.0184578906e+05
    1.1676942930e-02    1.0197528906e+05
    1.1697287671e-02    1.0218015625e+05
    1.1717652902e-02    1.0248271094e+05
    1.1738038622e-02    1.0289597656e+05
    1.1758443899e-02    1.0344982031e+05
    1.1778870597e-02    1.0416033594e+05
    1.1799318716e-02    1.0503397656e+05
    1.1819788255e-02    1.0605960156e+05
    1.1840280145e-02    1.0720535156e+05
    1.1860790662e-02    1.0840424219e+05
    1.1881321669e-02    1.0957721094e+05
    1.1901874095e-02    1.1064205469e+05
    1.1922447011e-02    1.1150571875e+05
    1.1943042278e-02    1.1211017969e+05
    1.1963658035e-02    1.1243536719e+05
    1.1984295212e-02    1.1247953906e+05
    1.2004952878e-02    1.1226541406e+05
    1.2025631964e-02    1.1184000781e+05
    1.2046331540e-02    1.1126072656e+05
    1.2067052536e-02    1.1057561719e+05
    1.2087795883e-02    1.0985210156e+05
    1.2108558789e-02    1.0913178906e+05
    1.2129344046e-02    1.0846640625e+05
    1.2150149792e-02    1.0788247656e+05
    1.2170976959e-02    1.0739482031e+05
    1.2191825546e-02    1.0699918750e+05
    1.2212695554e-02    1.0666928125e+05
    1.2233586982e-02    1.0635628906e+05
    1.2254500762e-02    1.0603632031e+05
    1.2275436893e-02    1.0567371094e+05
    1.2296394445e-02    1.0525641406e+05
    1.2317374349e-02    1.0478514844e+05
    1.2338375673e-02    1.0426580469e+05
    1.2359398417e-02    1.0372666406e+05
    1.2380442582e-02    1.0317946875e+05
    1.2401508167e-02    1.0265466406e+05
    1.2422595173e-02    1.0217089844e+05
    1.2443703599e-02    1.0173603906e+05
    1.2464834377e-02    1.0135999219e+05
    1.2485986575e-02    1.0104115625e+05
    1.2507158332e-02    1.0077497656e+05
    1.2528351508e-02    1.0055121094e+05
    1.2549565174e-02    1.0035607031e+05
    1.2570801191e-02    1.0017641406e+05
    1.2592058629e-02    1.0001158594e+05
    1.2613337487e-02    9.9853023438e+04
    1.2634636834e-02    9.9706304688e+04
    1.2655957602e-02    9.9577218750e+04
    1.2677297927e-02    9.9465664062e+04
    1.2698660605e-02    9.9374718750e+04
    1.2720043771e-02    9.9307054688e+04
    1.2741449289e-02    9.9261031250e+04
    1.2762876227e-02    9.9243632812e+04
    1.2784325518e-02    9.9236960938e+04
    1.2805794366e-02    9.9246914062e+04
    1.2827285565e-02    9.9258976562e+04
    1.2848797254e-02    9.9268804688e+04
    1.2870330364e-02    9.9264179688e+04
    1.2891885825e-02    9.9238195312e+04
    1.2913462706e-02    9.9189945312e+04
    1.2935061008e-02    9.9121101562e+04
    1.2956679799e-02    9.9034210938e+04
    1.2978320010e-02    9.8942742188e+04
    1.2999981642e-02    9.8857906250e+04
    1.3021663763e-02    9.8798000000e+04
    1.3043368235e-02    9.8758539062e+04
    1.3065092266e-02    9.8757812500e+04
    1.3086837716e-02    9.8787726562e+04
    1.3108605519e-02    9.8851968750e+04
    1.3130392879e-02    9.8926601562e+04
    1.3152201660e-02    9.9006539062e+04
    1.3174032792e-02    9.9083226562e+04
    1.3195885345e-02    9.9143164062e+04
    1.3217759319e-02    9.9185570312e+04
    1.3239653781e-02    9.9206898438e+04
    1.3261569664e-02    9.9206273438e+04
    1.3283506967e-02    9.9199812500e+04
    1.3305463828e-02    9.9194898438e+04
    1.3327440247e-02    9.9199476562e+04
    1.3349435292e-02    9.9219101562e+04
    1.3371448033e-02    9.9246726562e+04
    1.3393475674e-02    9.9286710938e+04
    1.3415516354e-02    9.9340210938e+04
    1.3437564485e-02    9.9398343750e+04
    1.3459613547e-02    9.9465781250e+04
    1.3481658883e-02    9.9527492188e+04
    1.3503690250e-02    9.9595835938e+04
    1.3525702059e-02    9.9652632812e+04
    1.3547683135e-02    9.9709460938e+04
    1.3569628820e-02    9.9768007812e+04
    1.3591531664e-02    9.9818914062e+04
    1.3613392599e-02    9.9870210938e+04
    1.3635210693e-02    9.9918281250e+04
    1.3656994328e-02    9.9966273438e+04
    1.3678749092e-02    1.0002032031e+05
    1.3700488023e-02    1.0008161719e+05
    1.3722228818e-02    1.0014239844e+05
    1.3743981719e-02    1.0021000781e+05
    1.3765762560e-02    1.0027908594e+05
    1.3787578791e-02    1.0034546875e+05
    1.3809437864e-02    1.0041072656e+05
    1.3831341639e-02    1.0047700781e+05
    1.3853288256e-02    1.0053447656e+05
    1.3875273056e-02    1.0060115625e+05
    1.3897285797e-02    1.0065864844e+05
    1.3919321820e-02    1.0071371094e+05
    1.3941374607e-02    1.0076333594e+05
    1.3963440433e-02    1.0080490625e+05
    1.3985517435e-02    1.0084878125e+05
    1.4007603750e-02    1.0088171094e+05
    1.4029704034e-02    1.0091943750e+05
    1.4051820152e-02    1.0095072656e+05
    1.4073957689e-02    1.0097241406e+05
    1.4096121304e-02    1.0099184375e+05
    1.4118315652e-02    1.0100383594e+05
    1.4140545391e-02    1.0101271875e+05
    1.4162814245e-02    1.0101912500e+05
    1.4185124077e-02    1.0102353906e+05
    1.4207473956e-02    1.0102553125e+05
    1.4229862019e-02    1.0102946094e+05
    1.4252286404e-02    1.0103225000e+05
    1.4274741523e-02    1.0102744531e+05
    1.4297228307e-02    1.0102042969e+05
    1.4319745824e-02    1.0101983594e+05
    1.4342290349e-02    1.0101287500e+05
    1.4364863746e-02    1.0100050781e+05
    1.4387467876e-02    1.0098512500e+05
    1.4410103671e-02    1.0096939844e+05
    1.4432771131e-02    1.0094478125e+05
    1.4455472119e-02    1.0091258594e+05
    1.4478209428e-02    1.0088532031e+05
    1.4500979334e-02    1.0085619531e+05
    1.4523783699e-02    1.0082846875e+05
    1.4546621591e-02    1.0079900781e+05
    1.4569494873e-02    1.0076971094e+05
    1.4592399821e-02    1.0073918750e+05
    1.4615339227e-02    1.0071064844e+05
    1.4638305642e-02    1.0068746094e+05
    1.4661304653e-02    1.0066621094e+05
    1.4684336260e-02    1.0064702344e+05
    1.4707398601e-02    1.0063021875e+05
    1.4730494469e-02    1.0061260156e+05
    1.4753622934e-02    1.0059453906e+05
    1.4776783995e-02    1.0058171094e+05
    1.4799979515e-02    1.0056852344e+05
    1.4823205769e-02    1.0055153125e+05
    1.4846466482e-02    1.0053571875e+05
    1.4869757928e-02    1.0052889844e+05
    1.4893081971e-02    1.0053202344e+05
    1.4916437678e-02    1.0053478906e+05
    1.4939822257e-02    1.0054509375e+05
    1.4963239431e-02    1.0056287500e+05
    1.4986685477e-02    1.0059135156e+05
    1.5010161325e-02    1.0063017969e+05
    1.5033668838e-02    1.0067680469e+05
    1.5057205223e-02    1.0072852344e+05
    1.5080772340e-02    1.0078585156e+05
    1.5104367398e-02    1.0083753125e+05
    1.5127992257e-02    1.0089547656e+05
    1.5151646920e-02    1.0094909375e+05
    1.5175330453e-02    1.0100097656e+05
    1.5199041925e-02    1.0104622656e+05
    1.5222782269e-02    1.0107808594e+05
    1.5246548690e-02    1.0110189844e+05
    1.5270343982e-02    1.0111491406e+05
    1.5294168144e-02    1.0112612500e+05
    1.5318016522e-02    1.0112777344e+05
    1.5341891907e-02    1.0112315625e+05
    1.5365792438e-02    1.0112133594e+05
    1.5389721841e-02    1.0111678906e+05
    1.5413676389e-02    1.0111464844e+05
    1.5437657945e-02    1.0111327344e+05
    1.5461664647e-02    1.0111406250e+05
    1.5485695563e-02    1.0111544531e+05
    1.5509752557e-02    1.0112083594e+05
    1.5533835627e-02    1.0112889844e+05
    1.5557944775e-02    1.0113775781e+05
    1.5582079068e-02    1.0114910156e+05
    1.5606240369e-02    1.0116514844e+05
    1.5630424023e-02    1.0118102344e+05
    1.5654634684e-02    1.0119263281e+05
    1.5678871423e-02    1.0121542969e+05
    1.5703132376e-02    1.0123885156e+05
    1.5727419406e-02    1.0124914844e+05
    1.5751728788e-02    1.0127114844e+05
    1.5776060522e-02    1.0129128906e+05
    1.5800418332e-02    1.0131577344e+05
    1.5824800357e-02    1.0133661719e+05
    1.5849204734e-02    1.0135791406e+05
    1.5873633325e-02    1.0138221094e+05
    1.5898084268e-02    1.0139684375e+05
    1.5922557563e-02    1.0141085156e+05
    1.5947058797e-02    1.0142372656e+05
    1.5971582383e-02    1.0143609375e+05
    1.5996130183e-02    1.0144340625e+05
    1.6020702198e-02    1.0144952344e+05
    1.6045298427e-02    1.0144988281e+05
    1.6069920734e-02    1.0144925781e+05
    1.6094569117e-02    1.0145067969e+05
    1.6119243577e-02    1.0145710156e+05
    1.6143942252e-02    1.0145903906e+05
    1.6168667004e-02    1.0146585156e+05
    1.6193419695e-02    1.0146586719e+05
    1.6218200326e-02    1.0146992969e+05
    1.6243007034e-02    1.0147250000e+05
    1.6267839819e-02    1.0147491406e+05
    1.6292702407e-02    1.0147414844e+05
    1.6317596659e-02    1.0147794531e+05
    1.6342513263e-02    1.0148146094e+05
    1.6367461532e-02    1.0148935156e+05
    1.6392435879e-02    1.0150662500e+05
    1.6417443752e-02    1.0151485156e+05
    1.6442479566e-02    1.0152250000e+05
    1.6467543319e-02    1.0153009375e+05
    1.6492636874e-02    1.0154817969e+05
    1.6517756507e-02    1.0157739844e+05
    1.6542907804e-02    1.0160146094e+05
    1.6568088904e-02    1.0162741406e+05
    1.6593271866e-02    1.0165022656e+05
    1.6618426889e-02    1.0168110156e+05
    1.6643559560e-02    1.0171028906e+05
    1.6668669879e-02    1.0173864844e+05
    1.6693757847e-02    1.0176271094e+05
    1.6718825325e-02    1.0178557031e+05
    1.6743874177e-02    1.0180818750e+05
    1.6768900678e-02    1.0181921094e+05
    1.6793908551e-02    1.0183881250e+05
    1.6818899661e-02    1.0184892969e+05
    1.6843874007e-02    1.0186858594e+05
    1.6868829727e-02    1.0186927344e+05
    1.6893770546e-02    1.0187772656e+05
    1.6918692738e-02    1.0187728125e+05
    1.6943598166e-02    1.0188041406e+05
    1.6968490556e-02    1.0188453906e+05
    1.6993366182e-02    1.0188738281e+05
    1.7018226907e-02    1.0188867969e+05
    1.7043072730e-02    1.0188843750e+05
    1.7067901790e-02    1.0187627344e+05
    1.7092714086e-02    1.0187119531e+05
    1.7117511481e-02    1.0186468750e+05
    1.7142292112e-02    1.0186139844e+05
    1.7167057842e-02    1.0185635156e+05
    1.7191808671e-02    1.0185465625e+05
    1.7216544598e-02    1.0185236719e+05
    1.7241263762e-02    1.0184877344e+05
    1.7265968025e-02    1.0184431250e+05
    1.7290659249e-02    1.0183046094e+05
    1.7315333709e-02    1.0183577344e+05
    1.7339993268e-02    1.0183189844e+05
    1.7364639789e-02    1.0183259375e+05
    1.7389267683e-02    1.0183519531e+05
    1.7413880676e-02    1.0184238281e+05
    1.7438478768e-02    1.0184512500e+05
    1.7463061959e-02    1.0185394531e+05
    1.7487626523e-02    1.0186924219e+05
    1.7512176186e-02    1.0189044531e+05
    1.7536709085e-02    1.0191387500e+05
    1.7561223358e-02    1.0194643750e+05
    1.7585720867e-02    1.0199352344e+05
    1.7610201612e-02    1.0205766406e+05
    1.7634663731e-02    1.0213516406e+05
    1.7659107223e-02    1.0223458594e+05
    1.7683532089e-02    1.0234718750e+05
    1.7707940191e-02    1.0247838281e+05
    1.7732329667e-02    1.0261928125e+05
    1.7756698653e-02    1.0276925000e+05
    1.7781050876e-02    1.0292302344e+05
    1.7805384472e-02    1.0306747656e+05
    1.7829699442e-02    1.0319738281e+05
    1.7853999510e-02    1.0330191406e+05
    1.7878280953e-02    1.0337678125e+05
    1.7902545631e-02    1.0341607031e+05
    1.7926793545e-02    1.0341303906e+05
    1.7951028422e-02    1.0336015625e+05
    1.7975246534e-02    1.0326855469e+05
    1.7999447882e-02    1.0312571094e+05
    1.8023636192e-02    1.0294849219e+05
    1.8047811463e-02    1.0272043750e+05
    1.8071975559e-02    1.0246528906e+05
    1.8096126616e-02    1.0218333594e+05
    1.8120266497e-02    1.0189944531e+05
    1.8144397065e-02    1.0162949219e+05
    1.8168520182e-02    1.0137733594e+05
    1.8192630261e-02    1.0114740625e+05
    1.8216732889e-02    1.0095202344e+05
    1.8240824342e-02    1.0078947656e+05
    1.8264908344e-02    1.0065978906e+05
    1.8288983032e-02    1.0056628906e+05
    1.8313048407e-02    1.0050057031e+05
    1.8337102607e-02    1.0046421094e+05
    1.8361147493e-02    1.0044953906e+05
    1.8385183066e-02    1.0045607031e+05
    1.8409207463e-02    1.0048185156e+05
    1.8433224410e-02    1.0052846094e+05
    1.8457230181e-02    1.0059141406e+05
    1.8481226638e-02    1.0067028906e+05
    1.8505210057e-02    1.0074341406e+05
    1.8529184163e-02    1.0082766406e+05
    1.8553148955e-02    1.0091300000e+05
    1.8577100709e-02    1.0100047656e+05
    1.8601041287e-02    1.0108758594e+05
    1.8624972552e-02    1.0116977344e+05
    1.8648892641e-02    1.0124278906e+05
    1.8672801554e-02    1.0130615625e+05
    1.8696699291e-02    1.0136340625e+05
    1.8720587716e-02    1.0141768750e+05
    1.8744463101e-02    1.0145928906e+05
    1.8768329173e-02    1.0150155469e+05
    1.8792184070e-02    1.0153455469e+05
    1.8816027790e-02    1.0156814844e+05
    1.8839860335e-02    1.0160408594e+05
    1.8863683566e-02    1.0164592969e+05
    1.8887493759e-02    1.0170109375e+05
    1.8911294639e-02    1.0174928906e+05
    1.8935086206e-02    1.0180832031e+05
    1.8958866596e-02    1.0186890625e+05
    1.8982635811e-02    1.0192633594e+05
    1.9006397575e-02    1.0198609375e+05
    1.9030146301e-02    1.0204575781e+05
    1.9053885713e-02    1.0210225000e+05
    1.9077615812e-02    1.0215662500e+05
    1.9101334736e-02    1.0221253906e+05
    1.9125042483e-02    1.0226182031e+05
    1.9148740917e-02    1.0230588281e+05
    1.9172428176e-02    1.0235466406e+05
    1.9196104258e-02    1.0240390625e+05
    1.9219771028e-02    1.0245974219e+05
    1.9243424758e-02    1.0251090625e+05
    1.9267069176e-02    1.0255028906e+05
    1.9290700555e-02    1.0259772656e+05
    1.9314322621e-02    1.0263528906e+05
    1.9337931648e-02    1.0266696094e+05
    1.9361529499e-02    1.0270363281e+05
    1.9385114312e-02    1.0273233594e+05
    1.9408687949e-02    1.0275737500e+05
    1.9432250410e-02    1.0277239844e+05
    1.9455801696e-02    1.0278537500e+05
    1.9479339942e-02    1.0279509375e+05
    1.9502865151e-02    1.0280135156e+05
    1.9526379183e-02    1.0280039844e+05
    1.9549878314e-02    1.0279822656e+05
    1.9573366269e-02    1.0279289844e+05
    1.9596841186e-02    1.0278094531e+05
    1.9620303065e-02    1.0276585156e+05
    1.9643751904e-02    1.0274799219e+05
    1.9667187706e-02    1.0272750000e+05
    1.9690606743e-02    1.0270368750e+05
    1.9714014605e-02    1.0268285156e+05
    1.9737409428e-02    1.0265867969e+05
    1.9760791212e-02    1.0263509375e+05
    1.9784159958e-02    1.0261416406e+05
    1.9807513803e-02    1.0258972656e+05
    1.9830854610e-02    1.0257694531e+05
    1.9854182377e-02    1.0255897656e+05
    1.9877497107e-02    1.0254022656e+05
    1.9900798798e-02    1.0251871094e+05
    1.9924087450e-02    1.0250056250e+05
    1.9947361201e-02    1.0248365625e+05
    1.9970623776e-02    1.0246799219e+05
    1.9993871450e-02    1.0245905469e+05
    2.0017107949e-02    1.0244072656e+05
    2.0040329546e-02    1.0242433594e+05
    2.0063538104e-02    1.0240942969e+05
    2.0086731762e-02    1.0238819531e+05
    2.0109914243e-02    1.0237053906e+05
    2.0133081824e-02    1.0235147656e+05
    2.0156236365e-02    1.0232939844e+05
    2.0179376006e-02    1.0230091406e+05
    2.0202504471e-02    1.0227802344e+05
    2.0225618035e-02    1.0224832031e+05
    2.0248720422e-02    1.0221759375e+05
    2.0271807909e-02    1.0218972656e+05
    2.0294882357e-02    1.0215550781e+05
    2.0317947492e-02    1.0212518750e+05
    2.0340997726e-02    1.0208433594e+05
    2.0364036784e-02    1.0204291406e+05
    2.0387060940e-02    1.0200730469e+05
    2.0410073921e-02    1.0196608594e+05
    2.0433073863e-02    1.0193421875e+05
    2.0456060767e-02    1.0189744531e+05
    2.0479036495e-02    1.0185939844e+05
    2.0501999184e-02    1.0182234375e+05
    2.0524948835e-02    1.0179066406e+05
    2.0547885448e-02    1.0176615625e+05
    2.0570809022e-02    1.0174889844e+05
    2.0593719557e-02    1.0173566406e+05
    2.0616617054e-02    1.0172343750e+05
    2.0639499649e-02    1.0171542969e+05
    2.0662369207e-02    1.0171640625e+05
    2.0685223863e-02    1.0173147656e+05
    2.0708063617e-02    1.0174874219e+05
    2.0730890334e-02    1.0177039844e+05
    2.0753700286e-02    1.0180564844e+05
    2.0776495337e-02    1.0183550000e+05
    2.0799275488e-02    1.0185847656e+05
    2.0822042599e-02    1.0189299219e+05
    2.0844791085e-02    1.0193405469e+05
    2.0867524669e-02    1.0197294531e+05
    2.0890241489e-02    1.0200403906e+05
    2.0912945271e-02    1.0203596094e+05
    2.0935632288e-02    1.0206555469e+05
    2.0958306268e-02    1.0209421094e+05
    2.0980965346e-02    1.0211971094e+05
    2.1003607661e-02    1.0214931250e+05
    2.1026238799e-02    1.0216877344e+05
    2.1048855036e-02    1.0218115625e+05
    2.1071458235e-02    1.0219614844e+05
    2.1094048396e-02    1.0220269531e+05
    2.1116625518e-02    1.0221283594e+05
    2.1139191464e-02    1.0221838281e+05
    2.1161744371e-02    1.0222710156e+05
    2.1184286103e-02    1.0223427344e+05
    2.1206818521e-02    1.0222989844e+05
    2.1229337901e-02    1.0222783594e+05
    2.1251846105e-02    1.0221860156e+05
    2.1274344996e-02    1.0220978906e+05
    2.1296832711e-02    1.0220239844e+05
    2.1319312975e-02    1.0218618750e+05
    2.1341778338e-02    1.0216855469e+05
    2.1364232525e-02    1.0215482031e+05
    2.1386675537e-02    1.0213885156e+05
    2.1409107372e-02    1.0212281250e+05
    2.1431528032e-02    1.0210064844e+05
    2.1453931928e-02    1.0208647656e+05
    2.1476324648e-02    1.0206290625e+05
    2.1498700604e-02    1.0204438281e+05
    2.1521063522e-02    1.0202996875e+05
    2.1543409675e-02    1.0200649219e+05
    2.1565740928e-02    1.0199247656e+05
    2.1588053554e-02    1.0197521875e+05
    2.1610351279e-02    1.0196277344e+05
    2.1632634103e-02    1.0195183594e+05
    2.1654898301e-02    1.0193989844e+05
    2.1677147597e-02    1.0193396094e+05
    2.1699378267e-02    1.0193228125e+05
    2.1721594036e-02    1.0193211719e+05
    2.1743793041e-02    1.0193827344e+05
    2.1765975282e-02    1.0194189844e+05
    2.1788140759e-02    1.0194635156e+05
    2.1810289472e-02    1.0195238281e+05
    2.1832419559e-02    1.0195966406e+05
    2.1854531020e-02    1.0196685156e+05
    2.1876627579e-02    1.0197840625e+05
    2.1898705512e-02    1.0198816406e+05
    2.1920768544e-02    1.0199589844e+05
    2.1942811087e-02    1.0200646094e+05
    2.1964838728e-02    1.0201196094e+05
    2.1986849606e-02    1.0202177344e+05
    2.2008845583e-02    1.0202683594e+05
    2.2030822933e-02    1.0203121094e+05
    2.2052785382e-02    1.0203114844e+05
    2.2074732929e-02    1.0202939844e+05
    2.2096665576e-02    1.0203183594e+05
    2.2118583322e-02    1.0203127344e+05
    2.2140489891e-02    1.0202569531e+05
    2.2162377834e-02    1.0202612500e+05
    2.2184254602e-02    1.0202105469e+05
    2.2206118330e-02    1.0201639844e+05
    2.2227969021e-02    1.0201569531e+05
    2.2249806672e-02    1.0201418750e+05
    2.2271629423e-02    1.0200343750e+05
    2.2293440998e-02    1.0199653906e+05
    2.2315241396e-02    1.0199031250e+05
    2.2337028757e-02    1.0198860156e+05
    2.2358803079e-02    1.0199546094e+05
    2.2380566224e-02    1.0199777344e+05
    2.2402318195e-02    1.0200147656e+05
    2.2424057126e-02    1.0200580469e+05
    2.2445784882e-02    1.0200869531e+05
    2.2467501462e-02    1.0201646094e+05
    2.2489206865e-02    1.0203015625e+05
    2.2510899231e-02    1.0203522656e+05
    2.2532582283e-02    1.0204994531e+05
    2.2554252297e-02    1.0205574219e+05
    2.2575911134e-02    1.0206909375e+05
    2.2597560659e-02    1.0207728906e+05
    2.2619199008e-02    1.0209312500e+05
    2.2640828043e-02    1.0210017969e+05
    2.2662445903e-02    1.0211621094e+05
    2.2684050724e-02    1.0211842969e+05
    2.2705646232e-02    1.0212041406e+05
    2.2727232426e-02    1.0212564844e+05
    2.2748809308e-02    1.0213008594e+05
    2.2770375013e-02    1.0213865625e+05
    2.2791929543e-02    1.0213841406e+05
    2.2813472897e-02    1.0214184375e+05
    2.2835006937e-02    1.0213996875e+05
    2.2856531665e-02    1.0214013281e+05
    2.2878047079e-02    1.0213974219e+05
    2.2899549454e-02    1.0213653906e+05
    2.2921044379e-02    1.0213396875e+05
    2.2942528129e-02    1.0213596094e+05
    2.2964000702e-02    1.0213761719e+05
    2.2985465825e-02    1.0212975000e+05
    2.3006917909e-02    1.0213075000e+05
    2.3028360680e-02    1.0213200781e+05
    2.3049792275e-02    1.0213781250e+05
    2.3071214557e-02    1.0213466406e+05
    2.3092625663e-02    1.0213590625e+05
    2.3114029318e-02    1.0212722656e+05
    2.3135419935e-02    1.0212796094e+05
    2.3156799376e-02    1.0213377344e+05
    2.3178169504e-02    1.0213959375e+05
    2.3199530318e-02    1.0214059375e+05
    2.3220879957e-02    1.0214183594e+05
    2.3242218420e-02    1.0214382031e+05
    2.3263547570e-02    1.0215032031e+05
    2.3284865543e-02    1.0215235156e+05
    2.3306174204e-02    1.0215868750e+05
    2.3327469826e-02    1.0216027344e+05
    2.3348756135e-02    1.0216186719e+05
    2.3370031267e-02    1.0217328906e+05
    2.3391297087e-02    1.0218202344e+05
    2.3412553594e-02    1.0219172656e+05
    2.3433798924e-02    1.0220312500e+05
    2.3455033079e-02    1.0221027344e+05
    2.3476256058e-02    1.0222071094e+05
    2.3497469723e-02    1.0223625781e+05
    2.3518672213e-02    1.0224714844e+05
    2.3539865389e-02    1.0226377344e+05
    2.3561049253e-02    1.0227671094e+05
    2.3582221940e-02    1.0229546094e+05
    2.3603385314e-02    1.0231641406e+05
    2.3624535650e-02    1.0233442969e+05
    2.3645676672e-02    1.0234993750e+05
    2.3666808382e-02    1.0236660156e+05
    2.3687927052e-02    1.0238572656e+05
    2.3709038273e-02    1.0240068750e+05
    2.3730138317e-02    1.0241382031e+05
    2.3751227185e-02    1.0242760156e+05
    2.3772306740e-02    1.0244125781e+05
    2.3793375120e-02    1.0245368750e+05
    2.3814432323e-02    1.0245594531e+05
    2.3835480213e-02    1.0245721875e+05
    2.3856516927e-02    1.0245699219e+05
    2.3877544329e-02    1.0245557031e+05
    2.3898560554e-02    1.0244346094e+05
    2.3919565603e-02    1.0242916406e+05
    2.3940561339e-02    1.0240831250e+05
    2.3961545900e-02    1.0238247656e+05
    2.3982519284e-02    1.0235580469e+05
    2.4003483355e-02    1.0232435156e+05
    2.4024436250e-02    1.0228488281e+05
    2.4045377970e-02    1.0224242969e+05
    2.4066310376e-02    1.0220450000e+05
    2.4087233469e-02    1.0216278906e+05
    2.4108145386e-02    1.0211424219e+05
    2.4129044265e-02    1.0207260156e+05
    2.4149935693e-02    1.0203425781e+05
    2.4170814082e-02    1.0200364844e+05
    2.4191683158e-02    1.0197503906e+05
    2.4212542921e-02    1.0195159375e+05
    2.4233391508e-02    1.0194624219e+05
    2.4254228920e-02    1.0195282031e+05
    2.4275057018e-02    1.0196302344e+05
    2.4295873940e-02    1.0198172656e+05
    2.4316681549e-02    1.0200463281e+05
    2.4337477982e-02    1.0203033594e+05
    2.4358265102e-02    1.0205543750e+05
    2.4379042909e-02    1.0208560156e+05
    2.4399809539e-02    1.0211403906e+05
    2.4420566857e-02    1.0214261719e+05
    2.4441312999e-02    1.0216875000e+05
    2.4462047964e-02    1.0219658594e+05
    2.4482775480e-02    1.0222584375e+05
    2.4503491819e-02    1.0224185156e+05
    2.4524198845e-02    1.0225942969e+05
    2.4544894695e-02    1.0227643750e+05
    2.4565581232e-02    1.0229450781e+05
    2.4586258456e-02    1.0230471875e+05
    2.4606924504e-02    1.0230978906e+05
    2.4627581239e-02    1.0232152344e+05
    2.4648228660e-02    1.0233339844e+05
    2.4668866768e-02    1.0234506250e+05
    2.4689495564e-02    1.0235710156e+05
    2.4710113183e-02    1.0236949219e+05
    2.4730721489e-02    1.0237674219e+05
    2.4751318619e-02    1.0239147656e+05
    2.4771906435e-02    1.0240578906e+05
    2.4792486802e-02    1.0241778906e+05
    2.4813055992e-02    1.0243016406e+05
    2.4833614007e-02    1.0244278906e+05
    2.4854162708e-02    1.0246010156e+05
    2.4874702096e-02    1.0247858594e+05
    2.4895232171e-02    1.0248735156e+05
    2.4915752932e-02    1.0249652344e+05
    2.4936262518e-02    1.0250893750e+05
    2.4956764653e-02    1.0251635156e+05
    2.4977253750e-02    1.0252237500e+05
    2.4997735396e-02    1.0252338281e+05
    2.5018205866e-02    1.0252825781e+05
    2.5038668886e-02    1.0252950000e+05
    2.5059120730e-02    1.0252596875e+05
    2.5079563260e-02    1.0251787500e+05
    2.5099996477e-02    1.0252041406e+05
    2.5120420381e-02    1.0251488281e+05
    2.5140833110e-02    1.0250147656e+05
    2.5161236525e-02    1.0249375000e+05
    2.5181630626e-02    1.0248510156e+05
    2.5202017277e-02    1.0247514844e+05
    2.5222390890e-02    1.0246339844e+05
    2.5242757052e-02    1.0245071094e+05
    2.5263112038e-02    1.0243610156e+05
    2.5283459574e-02    1.0242619531e+05
    2.5303795934e-02    1.0240833594e+05
    2.5324124843e-02    1.0238953906e+05
    2.5344440714e-02    1.0237283594e+05
    2.5364749134e-02    1.0236290625e+05
    2.5385048240e-02    1.0234760156e+05
    2.5405339897e-02    1.0233862500e+05
    2.5425618514e-02    1.0232927344e+05
    2.5445887819e-02    1.0231971094e+05
    2.5466147810e-02    1.0231030469e+05
    2.5486400351e-02    1.0230084375e+05
    2.5506639853e-02    1.0228275000e+05
    2.5526873767e-02    1.0227324219e+05
    2.5547094643e-02    1.0226641406e+05
    2.5567308068e-02    1.0226465625e+05
    2.5587510318e-02    1.0226091406e+05
    2.5607703254e-02    1.0225812500e+05
    2.5627886876e-02    1.0225536719e+05
    2.5648061186e-02    1.0225305469e+05
    2.5668226182e-02    1.0224611719e+05
    2.5688380003e-02    1.0223907031e+05
    2.5708526373e-02    1.0223235156e+05
    2.5728661567e-02    1.0223033594e+05
    2.5748789310e-02    1.0222946094e+05
    2.5768904015e-02    1.0222788281e+05
    2.5789011270e-02    1.0222765625e+05
    2.5809109211e-02    1.0222706250e+05
    2.5829195976e-02    1.0222768750e+05
    2.5849273428e-02    1.0222378906e+05
    2.5869343430e-02    1.0222041406e+05
    2.5889402255e-02    1.0222149219e+05
    2.5909451768e-02    1.0222762500e+05
    2.5929493830e-02    1.0222996094e+05
    2.5949522853e-02    1.0222760156e+05
    2.5969544426e-02    1.0222515625e+05
    2.5989556685e-02    1.0222339844e+05
    2.6009559631e-02    1.0223178906e+05
    2.6029553264e-02    1.0223137500e+05
    2.6049537584e-02    1.0223635156e+05
    2.6069512591e-02    1.0224225781e+05
    2.6089478284e-02    1.0224540625e+05
    2.6109432802e-02    1.0225356250e+05
    2.6129379869e-02    1.0225487500e+05
    2.6149315760e-02    1.0225630469e+05
    2.6169244200e-02    1.0225794531e+05
    2.6189163327e-02    1.0226912500e+05
    2.6209073141e-02    1.0227159375e+05
    2.6228975505e-02    1.0227406250e+05
    2.6248866692e-02    1.0227666406e+05
    2.6268748567e-02    1.0227928906e+05
    2.6288621128e-02    1.0228186719e+05
    2.6308484375e-02    1.0228685156e+05
    2.6328338310e-02    1.0229728906e+05
    2.6348184794e-02    1.0230085156e+05
    2.6368021965e-02    1.0229508594e+05
    2.6387847960e-02    1.0230044531e+05
    2.6407664642e-02    1.0231071094e+05
    2.6427472010e-02    1.0231428125e+05
    2.6447271928e-02    1.0231774219e+05
    2.6467062533e-02    1.0232137500e+05
    2.6486843824e-02    1.0232453906e+05
    2.6506617665e-02    1.0232275781e+05
    2.6526380330e-02    1.0232561719e+05
    2.6546133682e-02    1.0232672656e+05
    2.6565877721e-02    1.0233222656e+05
    2.6585612446e-02    1.0233040625e+05
    2.6605339721e-02    1.0233766406e+05
    2.6625057682e-02    1.0233821094e+05
    2.6644766331e-02    1.0233821094e+05
    2.6664465666e-02    1.0233996094e+05
    2.6684155688e-02    1.0234193750e+05
    2.6703836396e-02    1.0234371094e+05
    2.6723509654e-02    1.0234577344e+05
    2.6743173599e-02    1.0234022656e+05
    2.6762828231e-02    1.0233888281e+05
    2.6782475412e-02    1.0233971094e+05
    2.6802113280e-02    1.0234046094e+05
    2.6821739972e-02    1.0234022656e+05
    2.6841359213e-02    1.0234032031e+05
    2.6860967278e-02    1.0233514844e+05
    2.6880569756e-02    1.0233482031e+05
    2.6900164783e-02    1.0233508594e+05
    2.6919748634e-02    1.0233808594e+05
    2.6939325035e-02    1.0234062500e+05
    2.6958892122e-02    1.0233422656e+05
    2.6978449896e-02    1.0233216406e+05
    2.6997998357e-02    1.0234221094e+05
    2.7017539367e-02    1.0233836719e+05
    2.7037071064e-02    1.0234156250e+05
    2.7056595311e-02    1.0234471875e+05
    2.7076110244e-02    1.0234041406e+05
    2.7095617726e-02    1.0234080469e+05
    2.7115115896e-02    1.0234133594e+05
    2.7134604752e-02    1.0234661719e+05
    2.7154086158e-02    1.0234728906e+05
    2.7173558250e-02    1.0234846094e+05
    2.7193021029e-02    1.0234941406e+05
    2.7212476358e-02    1.0235047656e+05
    2.7231922373e-02    1.0235152344e+05
    2.7251357213e-02    1.0235264844e+05
    2.7270786464e-02    1.0235394531e+05
    2.7290204540e-02    1.0235532031e+05
    2.7309613302e-02    1.0235684375e+05
    2.7329014614e-02    1.0235816406e+05
    2.7348404750e-02    1.0235953906e+05
    2.7367785573e-02    1.0236053906e+05
    2.7387158945e-02    1.0236135156e+05
    2.7406521142e-02    1.0236214844e+05
    2.7425874025e-02    1.0236246094e+05
    2.7445219457e-02    1.0235775000e+05
    2.7464553714e-02    1.0236022656e+05
    2.7483878657e-02    1.0236067969e+05
    2.7503194287e-02    1.0236110156e+05
    2.7522502467e-02    1.0236371094e+05
    2.7541799471e-02    1.0236412500e+05
    2.7561087161e-02    1.0235549219e+05
    2.7580365539e-02    1.0236519531e+05
    2.7599634603e-02    1.0236591406e+05
    2.7618894354e-02    1.0236622656e+05
    2.7638144791e-02    1.0236396094e+05
    2.7657385916e-02    1.0236657031e+05
    2.7676619589e-02    1.0236713281e+05
    2.7695843950e-02    1.0236759375e+05
    2.7715058997e-02    1.0236791406e+05
    2.7734262869e-02    1.0236828906e+05
    2.7753459290e-02    1.0236825781e+05
    2.7772648260e-02    1.0236846094e+05
    2.7791827917e-02    1.0236855469e+05
    2.7810998261e-02    1.0236882031e+05
    2.7830159292e-02    1.0236894531e+05
    2.7849311009e-02    1.0236441406e+05
    2.7868455276e-02    1.0236433594e+05
    2.7887590230e-02    1.0236462500e+05
    2.7906717733e-02    1.0236467969e+05
    2.7925835922e-02    1.0236667969e+05
    2.7944946662e-02    1.0236615625e+05
    2.7964048088e-02    1.0236096094e+05
    2.7983140200e-02    1.0236749219e+05
    2.8002224863e-02    1.0236459375e+05
    2.8021300212e-02    1.0236163281e+05
    2.8040368110e-02    1.0236124219e+05
    2.8059426695e-02    1.0235921094e+05
    2.8078475967e-02    1.0236117969e+05
    2.8097519651e-02    1.0236562500e+05
    2.8116554022e-02    1.0235602344e+05
    2.8135580942e-02    1.0235971094e+05
    2.8154598549e-02    1.0236415625e+05
    2.8173606843e-02    1.0235882031e+05
    2.8192607686e-02    1.0235436719e+05
    2.8211599216e-02    1.0235650781e+05
    2.8230583295e-02    1.0236352344e+05
    2.8249559924e-02    1.0236347656e+05
    2.8268527240e-02    1.0235902344e+05
    2.8287487105e-02    1.0236314844e+05
    2.8306435794e-02    1.0236264844e+05
    2.8325378895e-02    1.0236238281e+05
    2.8344312683e-02    1.0235907031e+05
    2.8363237157e-02    1.0235808594e+05
    2.8382156044e-02    1.0235982031e+05
    2.8401065618e-02    1.0235933594e+05
    2.8419965878e-02    1.0235897656e+05
    2.8438858688e-02    1.0235878906e+05
    2.8457742184e-02    1.0235836719e+05
    2.8476616368e-02    1.0235808594e+05
    2.8495483100e-02    1.0235755469e+05
    2.8514338657e-02    1.0235689844e+05
    2.8533160686e-02    1.0235642969e+05
    2.8551930562e-02    1.0235624219e+05
    2.8570635244e-02    1.0235596094e+05
    2.8589271009e-02    1.0235577344e+05
    2.8607837856e-02    1.0235525781e+05
    2.8626350686e-02    1.0234725000e+05
    2.8644818813e-02    1.0234374219e+05
    2.8663259000e-02    1.0234199219e+05
    2.8681686148e-02    1.0234039844e+05
    2.8700113297e-02    1.0233859375e+05
    2.8718546033e-02    1.0233730469e+05
    2.8736986220e-02    1.0233625781e+05
    2.8755431995e-02    1.0233541406e+05
    2.8773877770e-02    1.0233452344e+05
    2.8792314231e-02    1.0233352344e+05
    2.8810730204e-02    1.0233250781e+05
    2.8829116374e-02    1.0232871094e+05
    2.8847465292e-02    1.0232005469e+05
    2.8865773231e-02    1.0231900000e+05
    2.8884036466e-02    1.0232314844e+05
    2.8902258724e-02    1.0232716406e+05
    2.8920443729e-02    1.0232758594e+05
    2.8938598931e-02    1.0232831250e+05
    2.8956729919e-02    1.0233012500e+05
    2.8974846005e-02    1.0233197656e+05
    2.8992949054e-02    1.0233664844e+05
    2.9011042789e-02    1.0234130469e+05
    2.9029129073e-02    1.0234374219e+05
    2.9047204182e-02    1.0234641406e+05
    2.9065268114e-02    1.0235138281e+05
    2.9083315283e-02    1.0235683594e+05
    2.9101338238e-02    1.0236291406e+05
    2.9119335115e-02    1.0237403906e+05
    2.9137304053e-02    1.0237849219e+05
    2.9155241325e-02    1.0238305469e+05
    2.9173148796e-02    1.0238772656e+05
    2.9191024601e-02    1.0238541406e+05
    2.9208874330e-02    1.0239699219e+05
    2.9226697981e-02    1.0240175781e+05
    2.9244501144e-02    1.0240671094e+05
    2.9262285680e-02    1.0241589844e+05
    2.9280053452e-02    1.0242591406e+05
    2.9297806323e-02    1.0243066406e+05
    2.9315544292e-02    1.0243546875e+05
    2.9333265498e-02    1.0243969531e+05
    2.9350971803e-02    1.0243441406e+05
    2.9368655756e-02    1.0243794531e+05
    2.9386319220e-02    1.0244397656e+05
    2.9403960332e-02    1.0244997656e+05
    2.9421577230e-02    1.0245347656e+05
    2.9439168051e-02    1.0245702344e+05
    2.9456734657e-02    1.0245987500e+05
    2.9474277049e-02    1.0246289844e+05
    2.9491795227e-02    1.0246575000e+05
    2.9509292915e-02    1.0246615625e+05
    2.9526771978e-02    1.0246617969e+05
    2.9544232413e-02    1.0246837500e+05
    2.9561674222e-02    1.0246785156e+05
    2.9579099268e-02    1.0246941406e+05
    2.9596509412e-02    1.0247058594e+05
    2.9613900930e-02    1.0247383594e+05
    2.9631273821e-02    1.0247021094e+05
    2.9648626223e-02    1.0246693750e+05
    2.9665958136e-02    1.0246799219e+05
    2.9683271423e-02    1.0246878125e+05
    2.9700560495e-02    1.0246955469e+05
    2.9717829078e-02    1.0246535156e+05
    2.9735075310e-02    1.0246622656e+05
    2.9752301052e-02    1.0246183594e+05
    2.9769508168e-02    1.0246162500e+05
    2.9786696658e-02    1.0246057031e+05
    2.9803866521e-02    1.0245022656e+05
    2.9821017757e-02    1.0244858594e+05
    2.9838152230e-02    1.0244164844e+05
    2.9855269939e-02    1.0243477344e+05
    2.9872370884e-02    1.0242258594e+05
    2.9889453202e-02    1.0241908594e+05
    2.9906518757e-02    1.0240571094e+05
    2.9923565686e-02    1.0240113281e+05
    2.9940593988e-02    1.0239614844e+05
    2.9957601801e-02    1.0238177344e+05
    2.9974590987e-02    1.0237655469e+05
    2.9991561547e-02    1.0236847656e+05
    3.0008511618e-02    1.0235550781e+05
    3.0025444925e-02    1.0234906250e+05
    3.0042361468e-02    1.0234224219e+05
    3.0059259385e-02    1.0233524219e+05
    3.0076142401e-02    1.0231913281e+05
    3.0093006790e-02    1.0231208594e+05
    3.0109854415e-02    1.0230525781e+05
    3.0126683414e-02    1.0230331250e+05
    3.0143497512e-02    1.0230106250e+05
    3.0160292983e-02    1.0229471094e+05
    3.0177071691e-02    1.0229839844e+05
    3.0193833634e-02    1.0229583594e+05
    3.0210576952e-02    1.0229835156e+05
    3.0227303505e-02    1.0230167969e+05
    3.0244011432e-02    1.0230080469e+05
    3.0260702595e-02    1.0230772656e+05
    3.0277376994e-02    1.0231062500e+05
    3.0294034630e-02    1.0231481250e+05
    3.0310675502e-02    1.0232133594e+05
    3.0327299610e-02    1.0232463281e+05
    3.0343905091e-02    1.0233503125e+05
    3.0360495672e-02    1.0234133594e+05
    3.0377071351e-02    1.0234889844e+05
    3.0393628404e-02    1.0235672656e+05
    3.0410168692e-02    1.0236327344e+05
    3.0426690355e-02    1.0236991406e+05
    3.0443195254e-02    1.0237442969e+05
    3.0459685251e-02    1.0237889844e+05
    3.0476156622e-02    1.0238296094e+05
    3.0492611229e-02    1.0238724219e+05
    3.0509050936e-02    1.0239574219e+05
    3.0525473878e-02    1.0239553906e+05
    3.0541881919e-02    1.0239972656e+05
    3.0558273196e-02    1.0240441406e+05
    3.0574647710e-02    1.0240850000e+05
    3.0591005459e-02    1.0240550000e+05
    3.0607348308e-02    1.0240674219e+05
    3.0623674393e-02    1.0240721094e+05
    3.0639985576e-02    1.0240746875e+05
    3.0656279996e-02    1.0240538281e+05
    3.0672557652e-02    1.0240753906e+05
    3.0688818544e-02    1.0240960156e+05
    3.0705062672e-02    1.0241166406e+05
    3.0721291900e-02    1.0241375781e+05
    3.0737506226e-02    1.0241085156e+05
    3.0753703788e-02    1.0240780469e+05
    3.0769886449e-02    1.0240886719e+05
    3.0786054209e-02    1.0240978906e+05
    3.0802207068e-02    1.0240096875e+05
    3.0818343163e-02    1.0240107031e+05
    3.0834466219e-02    1.0240100000e+05
    3.0850572512e-02    1.0240131250e+05
    3.0866663903e-02    1.0239874219e+05
    3.0882738531e-02    1.0239121094e+05
    3.0898798257e-02    1.0239064844e+05
    3.0914843082e-02    1.0238715625e+05
    3.0930871144e-02    1.0237892969e+05
    3.0946886167e-02    1.0237739844e+05
    3.0962884426e-02    1.0237578125e+05
    3.0978867784e-02    1.0237400000e+05
    3.0994836241e-02    1.0237262500e+05
    3.1010789797e-02    1.0237138281e+05
    3.1026728451e-02    1.0237035156e+05
    3.1042650342e-02    1.0236903125e+05
    3.1058559194e-02    1.0236333594e+05
    3.1074455008e-02    1.0235681250e+05
    3.1090334058e-02    1.0235227344e+05
    3.1106200069e-02    1.0234760156e+05
    3.1122051179e-02    1.0234241406e+05
    3.1137887388e-02    1.0234653906e+05
    3.1153710559e-02    1.0234418750e+05
    3.1169516966e-02    1.0234236719e+05
    3.1185310334e-02    1.0235000781e+05
    3.1201090664e-02    1.0234882031e+05
    3.1216854230e-02    1.0234785156e+05
    3.1232602894e-02    1.0234446094e+05
    3.1248336658e-02    1.0233883594e+05
    3.1264055520e-02    1.0233730469e+05
    3.1279761344e-02    1.0234038281e+05
    3.1295452267e-02    1.0234122656e+05
    3.1311132014e-02    1.0234021875e+05
    3.1326796860e-02    1.0233972656e+05
    3.1342446804e-02    1.0234880469e+05
    3.1358085573e-02    1.0234922656e+05
    3.1373709440e-02    1.0235433594e+05
    3.1389318407e-02    1.0235808594e+05
    3.1404916197e-02    1.0236206250e+05
    3.1420499086e-02    1.0236358594e+05
    3.1436067075e-02    1.0236557031e+05
    3.1451620162e-02    1.0237435156e+05
    3.1467158347e-02    1.0237937500e+05
    3.1482685357e-02    1.0238212500e+05
    3.1498193741e-02    1.0238977344e+05
    3.1513694674e-02    1.0239816406e+05
    3.1529176980e-02    1.0240200000e+05
    3.1544648111e-02    1.0240639844e+05
    3.1560108066e-02    1.0242032031e+05
    3.1575553119e-02    1.0242541406e+05
    3.1590986997e-02    1.0243047656e+05
    3.1606405973e-02    1.0243553906e+05
    3.1621813774e-02    1.0243825000e+05
    3.1637206674e-02    1.0244088281e+05
    3.1652588397e-02    1.0244346094e+05
    3.1667951494e-02    1.0245310156e+05
    3.1683307141e-02    1.0245805469e+05
    3.1698647887e-02    1.0246555469e+05
    3.1713977456e-02    1.0247027344e+05
    3.1729292125e-02    1.0247538281e+05
    3.1744595617e-02    1.0247780469e+05
    3.1759884208e-02    1.0248274219e+05
    3.1775161624e-02    1.0248972656e+05
    3.1790427864e-02    1.0249438281e+05
    3.1805675477e-02    1.0249871094e+05
    3.1820915639e-02    1.0250316406e+05
    3.1836140901e-02    1.0250721875e+05
    3.1851354986e-02    1.0250877344e+05
    3.1866557896e-02    1.0251000781e+05
    3.1881745905e-02    1.0251340625e+05
    3.1896922737e-02    1.0251678906e+05
    3.1912088394e-02    1.0251980469e+05
    3.1927239150e-02    1.0252277344e+05
    3.1942378730e-02    1.0252344531e+05
    3.1957507133e-02    1.0252386719e+05
    3.1972620636e-02    1.0252578125e+05
    3.1987726688e-02    1.0252233594e+05
    3.2002814114e-02    1.0251847656e+05
    3.2017890364e-02    1.0251838281e+05
    3.2032959163e-02    1.0251288281e+05
    3.2048013061e-02    1.0251135156e+05
    3.2063052058e-02    1.0250510156e+05
    3.2078083605e-02    1.0249825781e+05
    3.2093103975e-02    1.0249564844e+05
    3.2108109444e-02    1.0249303906e+05
    3.2123107463e-02    1.0249027344e+05
    3.2138090581e-02    1.0248735156e+05
    3.2153062522e-02    1.0248428125e+05
    3.2168023288e-02    1.0247655469e+05
    3.2182972878e-02    1.0247258594e+05
    3.2197911292e-02    1.0246364844e+05
    3.2212834805e-02    1.0245889844e+05
    3.2227750868e-02    1.0244930469e+05
    3.2242652029e-02    1.0243908594e+05
    3.2257542014e-02    1.0243359375e+05
    3.2272424549e-02    1.0242367969e+05
    3.2287292182e-02    1.0241858594e+05
    3.2302148640e-02    1.0241333594e+05
    3.2316997647e-02    1.0240865625e+05
    3.2331831753e-02    1.0240403906e+05
    3.2346658409e-02    1.0239971094e+05
    3.2361470163e-02    1.0239607031e+05
    3.2376270741e-02    1.0239255469e+05
    3.2391063869e-02    1.0238964844e+05
    3.2405842096e-02    1.0239185156e+05
    3.2420612872e-02    1.0239002344e+05
    3.2435368747e-02    1.0239333594e+05
    3.2450113446e-02    1.0239310156e+05
    3.2464850694e-02    1.0239819531e+05
    3.2479573041e-02    1.0239928125e+05
    3.2494287938e-02    1.0240078906e+05
    3.2508991659e-02    1.0240281250e+05
    3.2523684204e-02    1.0241260156e+05
    3.2538365573e-02    1.0241777344e+05
    3.2553035766e-02    1.0242149219e+05
    3.2567698509e-02    1.0243011719e+05
    3.2582346350e-02    1.0243957031e+05
    3.2596986741e-02    1.0244471094e+05
    3.2611619681e-02    1.0245463281e+05
    3.2626237720e-02    1.0246056250e+05
    3.2640848309e-02    1.0246889844e+05
    3.2655447721e-02    1.0247688281e+05
    3.2670035958e-02    1.0248034375e+05
    3.2684613019e-02    1.0248625781e+05
    3.2699178904e-02    1.0249158594e+05
    3.2713737339e-02    1.0250149219e+05
    3.2728284597e-02    1.0250410156e+05
    3.2742820680e-02    1.0251387500e+05
    3.2757349312e-02    1.0251882031e+05
    3.2771866769e-02    1.0252046094e+05
    3.2786373049e-02    1.0252224219e+05
    3.2800871879e-02    1.0252587500e+05
    3.2815355808e-02    1.0252702344e+05
    3.2829832286e-02    1.0252971875e+05
    3.2844301313e-02    1.0253219531e+05
    3.2858755440e-02    1.0253253906e+05
    3.2873202115e-02    1.0253512500e+05
    3.2887637615e-02    1.0253716406e+05
    3.2902065665e-02    1.0253410156e+05
    3.2916482538e-02    1.0253556250e+05
    3.2930891961e-02    1.0253615625e+05
    3.2945290208e-02    1.0253396875e+05
    3.2959677279e-02    1.0252658594e+05
    3.2974056900e-02    1.0252580469e+05
    3.2988425344e-02    1.0252438281e+05
    3.3002786338e-02    1.0252277344e+05
    3.3017136157e-02    1.0251883594e+05
    3.3031478524e-02    1.0251465625e+05
    3.3045809716e-02    1.0251292969e+05
    3.3060129732e-02    1.0251113281e+05
    3.3074442297e-02    1.0250915625e+05
    3.3088747412e-02    1.0250247656e+05
    3.3103041351e-02    1.0250039844e+05
    3.3117324114e-02    1.0249864844e+05
    3.3131599426e-02    1.0249631250e+05
    3.3145863563e-02    1.0248975781e+05
    3.3160120249e-02    1.0248783594e+05
    3.3174365759e-02    1.0248591406e+05
    3.3188603818e-02    1.0248421094e+05
    3.3202830702e-02    1.0248532031e+05
    3.3217050135e-02    1.0248637500e+05
    3.3231258392e-02    1.0248506250e+05
    3.3245459199e-02    1.0248400781e+05
    3.3259648830e-02    1.0247835156e+05
    3.3273831010e-02    1.0247978906e+05
    3.3288005739e-02    1.0248358594e+05
    3.3302169293e-02    1.0248286719e+05
    3.3316325396e-02    1.0248442969e+05
    3.3330474049e-02    1.0248391406e+05
    3.3344611526e-02    1.0248361719e+05
    3.3358741552e-02    1.0248346875e+05
    3.3372864127e-02    1.0248333594e+05
    3.3386975527e-02    1.0248353125e+05
    3.3401079476e-02    1.0248349219e+05
    3.3415172249e-02    1.0248390625e+05
    3.3429257572e-02    1.0248921094e+05
    3.3443335444e-02    1.0248996875e+05
    3.3457405865e-02    1.0249505469e+05
    3.3471468836e-02    1.0249366406e+05
    3.3485524356e-02    1.0249222656e+05
    3.3499568701e-02    1.0249264844e+05
    3.3513605595e-02    1.0249299219e+05
    3.3527631313e-02    1.0249091406e+05
    3.3541653305e-02    1.0249310156e+05
    3.3555664122e-02    1.0249115625e+05
    3.3569667488e-02    1.0249334375e+05
    3.3583663404e-02    1.0249102344e+05
    3.3597648144e-02    1.0248865625e+05
    3.3611625433e-02    1.0248868750e+05
    3.3625595272e-02    1.0249328906e+05
    3.3639557660e-02    1.0249328125e+05
    3.3653512597e-02    1.0249303125e+05
    3.3667460084e-02    1.0249310156e+05
    3.3681396395e-02    1.0248830469e+05
    3.3695328981e-02    1.0248780469e+05
    3.3709254116e-02    1.0248716406e+05
    3.3723168075e-02    1.0248646094e+05
    3.3737078309e-02    1.0248583594e+05
    3.3750977367e-02    1.0248506250e+05
    3.3764872700e-02    1.0248453906e+05
    3.3778760582e-02    1.0248353125e+05
    3.3792637289e-02    1.0248286719e+05
    3.3806510270e-02    1.0248175781e+05
    3.3820372075e-02    1.0248074219e+05
    3.3834230155e-02    1.0247735156e+05
    3.3848077059e-02    1.0247653906e+05
    3.3861916512e-02    1.0247560156e+05
    3.3875752240e-02    1.0247482031e+05
    3.3889576793e-02    1.0247410156e+05
    3.3903393894e-02    1.0247558594e+05
    3.3917203546e-02    1.0247489844e+05
    3.3931009471e-02    1.0247447656e+05
    3.3944804221e-02    1.0247402344e+05
    3.3958595246e-02    1.0247383594e+05
    3.3972378820e-02    1.0247390625e+05
    3.3986151218e-02    1.0247422656e+05
    3.3999919891e-02    1.0247946875e+05
    3.4013681114e-02    1.0247777344e+05
    3.4027434886e-02    1.0247825000e+05
    3.4041177481e-02    1.0248133594e+05
    3.4054916352e-02    1.0247971094e+05
    3.4068647772e-02    1.0248064844e+05
    3.4082375467e-02    1.0248140625e+05
    3.4096091986e-02    1.0248163281e+05
    3.4109804779e-02    1.0248150781e+05
    3.4123510122e-02    1.0247953906e+05
    3.4137208015e-02    1.0248365625e+05
    3.4150898457e-02    1.0248390625e+05
    3.4164581448e-02    1.0248403125e+05
    3.4178260714e-02    1.0247964844e+05
    3.4191932529e-02    1.0247944531e+05
    3.4205596894e-02    1.0247949219e+05
    3.4219253808e-02    1.0247932031e+05
    3.4232903272e-02    1.0247909375e+05
    3.4246545285e-02    1.0248350000e+05
    3.4260183573e-02    1.0248122656e+05
    3.4273810685e-02    1.0247872656e+05
    3.4287434071e-02    1.0247828906e+05
    3.4301050007e-02    1.0247810156e+05
    3.4314658493e-02    1.0247762500e+05
    3.4328263253e-02    1.0247744531e+05
    3.4341860563e-02    1.0247700781e+05
    3.4355450422e-02    1.0248141406e+05
    3.4369036555e-02    1.0247678906e+05
    3.4382611513e-02    1.0247627344e+05
    3.4396182746e-02    1.0247600781e+05
    3.4409742802e-02    1.0247552344e+05
    3.4423299134e-02    1.0247503906e+05
    3.4436848015e-02    1.0247436719e+05
    3.4450393170e-02    1.0247388281e+05
    3.4463927150e-02    1.0247347656e+05
    3.4477461129e-02    1.0247278906e+05
    3.4490987659e-02    1.0247227344e+05
    3.4504506737e-02    1.0247175781e+05
    3.4518022090e-02    1.0247127344e+05
    3.4531529993e-02    1.0247056250e+05
    3.4545030445e-02    1.0247016406e+05
    3.4558523446e-02    1.0246991406e+05
    3.4572008997e-02    1.0246952344e+05
    3.4585487098e-02    1.0246930469e+05
    3.4598957747e-02    1.0246907031e+05
    3.4612424672e-02    1.0246853125e+05
    3.4625884145e-02    1.0246839844e+05
    3.4639336169e-02    1.0246814844e+05
    3.4652780741e-02    1.0246767969e+05
    3.4666225314e-02    1.0246771094e+05
    3.4679658711e-02    1.0246730469e+05
    3.4693088382e-02    1.0246717969e+05
    3.4706510603e-02    1.0246688281e+05
    3.4719929099e-02    1.0246646875e+05
    3.4733340144e-02    1.0246591406e+05
    3.4746743739e-02    1.0246562500e+05
    3.4760143608e-02    1.0246521094e+05
    3.4773536026e-02    1.0246489844e+05
    3.4786924720e-02    1.0246902344e+05
    3.4800305963e-02    1.0246657031e+05
    3.4813679755e-02    1.0246665625e+05
    3.4827046096e-02    1.0246636719e+05
    3.4840408713e-02    1.0246591406e+05
    3.4853763878e-02    1.0246297656e+05
    3.4867111593e-02    1.0246253906e+05
    3.4880455583e-02    1.0246703906e+05
    3.4893795848e-02    1.0246438281e+05
    3.4907124937e-02    1.0246166406e+05
    3.4920454025e-02    1.0246162500e+05
    3.4933775663e-02    1.0246108594e+05
    3.4947093576e-02    1.0246072656e+05
    3.4960404038e-02    1.0246471875e+05
    3.4973710775e-02    1.0246443750e+05
    3.4987010062e-02    1.0245942969e+05
endcurve
