Curveplot
LS-DYNA keyword deck by LS-PrePost                          
Time
Pressure
Defined Connection
Pressure @ 2 #pts=1745
* Minval=     9.7920226562e+04 at time=         0.0125708012
* Maxval=     1.7300682812e+05 at time=         0.0060591097
    0.0000000000e+00    9.9998101562e+04
    3.3812357287e-05    9.9998101562e+04
    6.1326652940e-05    9.9998312500e+04
    8.9102875791e-05    9.9998429688e+04
    1.1682785407e-04    9.9998562500e+04
    1.4461828687e-04    9.9998843750e+04
    1.7236733402e-04    9.9999351562e+04
    2.0016246708e-04    1.0000913281e+05
    2.2795486439e-04    1.0000053906e+05
    2.5574557367e-04    1.0000053906e+05
    2.8353667585e-04    1.0000022656e+05
    3.1133697485e-04    9.9990757812e+04
    3.3912662184e-04    9.9999726562e+04
    3.6691734567e-04    9.9999914062e+04
    3.9470891352e-04    1.0000035156e+05
    4.2249175021e-04    1.0001003125e+05
    4.5027161832e-04    1.0000139844e+05
    4.7804549104e-04    1.0000128906e+05
    5.0581363030e-04    9.9991914062e+04
    5.3357944125e-04    1.0000087500e+05
    5.6134146871e-04    1.0000089844e+05
    5.8909942163e-04    1.0000075781e+05
    6.1685312539e-04    1.0000046875e+05
    6.4460188150e-04    1.0000053906e+05
    6.7234638846e-04    1.0000109375e+05
    7.0008635521e-04    1.0000171094e+05
    7.2782178177e-04    1.0000203906e+05
    7.5555208605e-04    1.0000174219e+05
    7.8327720985e-04    9.9992312500e+04
    8.1099680392e-04    1.0000133594e+05
    8.3871174138e-04    1.0000160156e+05
    8.6642213864e-04    1.0000167969e+05
    8.9412782108e-04    9.9992382812e+04
    9.2182843946e-04    1.0000128906e+05
    9.4952445943e-04    1.0000159375e+05
    9.7721535712e-04    1.0000203125e+05
    1.0049008997e-03    1.0000180469e+05
    1.0325826006e-03    1.0000162500e+05
    1.0602590628e-03    1.0000169531e+05
    1.0879321489e-03    1.0000187500e+05
    1.1155996472e-03    1.0000177344e+05
    1.1432634201e-03    1.0000164844e+05
    1.1709230021e-03    9.9992093750e+04
    1.1985785095e-03    9.9991773438e+04
    1.2262313394e-03    1.0000116406e+05
    1.2538790470e-03    1.0001160156e+05
    1.2815232622e-03    1.0001303906e+05
    1.3091630535e-03    1.0000252344e+05
    1.3368004002e-03    9.9994226562e+04
    1.3644339051e-03    1.0000016406e+05
    1.3920635683e-03    1.0002309375e+05
    1.4196902048e-03    1.0005597656e+05
    1.4473132323e-03    1.0010689844e+05
    1.4749332331e-03    1.0019087500e+05
    1.5025498578e-03    1.0032792969e+05
    1.5301633393e-03    1.0052813281e+05
    1.5577742597e-03    1.0080264844e+05
    1.5853822697e-03    1.0114103906e+05
    1.6129877185e-03    1.0154378125e+05
    1.6405890929e-03    1.0199862500e+05
    1.6681876732e-03    1.0247862500e+05
    1.6957829939e-03    1.0295236719e+05
    1.7233766848e-03    1.0338719531e+05
    1.7509678146e-03    1.0375116406e+05
    1.7785291420e-03    1.0403277344e+05
    1.8060547300e-03    1.0422400781e+05
    1.8335470231e-03    1.0432628906e+05
    1.8610082334e-03    1.0434197656e+05
    1.8884401070e-03    1.0428597656e+05
    1.9158447394e-03    1.0417653125e+05
    1.9432241097e-03    1.0403577344e+05
    1.9705800805e-03    1.0388533594e+05
    1.9979148638e-03    1.0374413281e+05
    2.0252298564e-03    1.0363427344e+05
    2.0525271539e-03    1.0356669531e+05
    2.0798076876e-03    1.0352952344e+05
    2.1070730872e-03    1.0352239844e+05
    2.1343247499e-03    1.0353197656e+05
    2.1615643054e-03    1.0355574219e+05
    2.1887931507e-03    1.0358328906e+05
    2.2160108201e-03    1.0359128125e+05
    2.2432196420e-03    1.0357521094e+05
    2.2704207804e-03    1.0353321094e+05
    2.2976147011e-03    1.0346056250e+05
    2.3248014040e-03    1.0337241406e+05
    2.3519827519e-03    1.0325757031e+05
    2.3791582789e-03    1.0312293750e+05
    2.4063293822e-03    1.0297764844e+05
    2.4334960617e-03    1.0282241406e+05
    2.4606597144e-03    1.0266393750e+05
    2.4878205732e-03    1.0250911719e+05
    2.5149781723e-03    1.0236589844e+05
    2.5421329774e-03    1.0223597656e+05
    2.5692859199e-03    1.0212474219e+05
    2.5964374654e-03    1.0203227344e+05
    2.6235871483e-03    1.0196394531e+05
    2.6507352013e-03    1.0192092969e+05
    2.6778825559e-03    1.0190263281e+05
    2.7050296776e-03    1.0189365625e+05
    2.7321761008e-03    1.0190532031e+05
    2.7593218256e-03    1.0192336719e+05
    2.7864677832e-03    1.0194135156e+05
    2.8136142064e-03    1.0195714844e+05
    2.8407603968e-03    1.0197296875e+05
    2.8679079842e-03    1.0198681250e+05
    2.8950548731e-03    1.0199122656e+05
    2.9222022276e-03    1.0199628125e+05
    2.9493502807e-03    1.0200271875e+05
    2.9764990322e-03    1.0201696875e+05
    3.0036487151e-03    1.0204828906e+05
    3.0307997949e-03    1.0209437500e+05
    3.0579508748e-03    1.0215771875e+05
    3.0851035845e-03    1.0224117969e+05
    3.1122572254e-03    1.0233331250e+05
    3.1394117977e-03    1.0242164844e+05
    3.1665677670e-03    1.0250009375e+05
    3.1937246677e-03    1.0255966406e+05
    3.2208829653e-03    1.0258697656e+05
    3.2480424270e-03    1.0258506250e+05
    3.2752046827e-03    1.0255772656e+05
    3.2952371985e-03    1.0250989844e+05
    3.3145032357e-03    1.0245977344e+05
    3.3336398192e-03    1.0240658594e+05
    3.3528339118e-03    1.0234830469e+05
    3.3720366191e-03    1.0229234375e+05
    3.3912549261e-03    1.0223240625e+05
    3.4104890656e-03    1.0217135156e+05
    3.4297339153e-03    1.0211212500e+05
    3.4486323129e-03    1.0204811719e+05
    3.4671388566e-03    1.0197756250e+05
    3.4854323603e-03    1.0189346094e+05
    3.5036695190e-03    1.0180425000e+05
    3.5219141282e-03    1.0170528906e+05
    3.5401545465e-03    1.0159883594e+05
    3.5583588760e-03    1.0149459375e+05
    3.5765271168e-03    1.0139310156e+05
    3.5946895368e-03    1.0129791406e+05
    3.6139658187e-03    1.0121258594e+05
    3.6330535077e-03    1.0113262500e+05
    3.6521453876e-03    1.0106277344e+05
    3.6699753255e-03    1.0100641406e+05
    3.6875614896e-03    1.0096284375e+05
    3.7050142419e-03    1.0092272656e+05
    3.7224807311e-03    1.0089292969e+05
    3.7400643341e-03    1.0086637500e+05
    3.7577797193e-03    1.0084321094e+05
    3.7755726371e-03    1.0082597656e+05
    3.7933769636e-03    1.0081241406e+05
    3.8111612666e-03    1.0080289844e+05
    3.8289318327e-03    1.0080653125e+05
    3.8467168342e-03    1.0081478906e+05
    3.8645383902e-03    1.0082508594e+05
    3.8824023213e-03    1.0083714844e+05
    3.9002960548e-03    1.0084583594e+05
    3.9182156324e-03    1.0085491406e+05
    3.9361710660e-03    1.0085713281e+05
    3.9541716687e-03    1.0086102344e+05
    3.9733103476e-03    1.0086675781e+05
    3.9924201556e-03    1.0086972656e+05
    4.0104058571e-03    1.0088377344e+05
    4.0284004062e-03    1.0089533594e+05
    4.0464363992e-03    1.0090871094e+05
    4.0656095371e-03    1.0092868750e+05
    4.0847789496e-03    1.0094660156e+05
    4.1039343923e-03    1.0096812500e+05
    4.1219722480e-03    1.0098635156e+05
    4.1400394402e-03    1.0100240625e+05
    4.1591953486e-03    1.0101881250e+05
    4.1784178466e-03    1.0103137500e+05
    4.1976389475e-03    1.0104407031e+05
    4.2168586515e-03    1.0105697656e+05
    4.2360713705e-03    1.0106533594e+05
    4.2552771047e-03    1.0107347656e+05
    4.2744791135e-03    1.0108086719e+05
    4.2936825193e-03    1.0108706250e+05
    4.3128933758e-03    1.0109008594e+05
    4.3321144767e-03    1.0108716406e+05
    4.3513495475e-03    1.0108707031e+05
    4.3705995195e-03    1.0108031250e+05
    4.3898657896e-03    1.0107627344e+05
    4.4091497548e-03    1.0106765625e+05
    4.4284537435e-03    1.0105657031e+05
    4.4477786869e-03    1.0104016406e+05
    4.4671236537e-03    1.0101821875e+05
    4.4864914380e-03    1.0099241406e+05
    4.5058806427e-03    1.0095596094e+05
    4.5252908021e-03    1.0092013281e+05
    4.5447219163e-03    1.0087413281e+05
    4.5641721226e-03    1.0083447656e+05
    4.5836409554e-03    1.0078838281e+05
    4.6031279489e-03    1.0074066406e+05
    4.6226321720e-03    1.0069235156e+05
    4.6421540901e-03    1.0064905469e+05
    4.6616927721e-03    1.0060683594e+05
    4.6812482178e-03    1.0056672656e+05
    4.7008208930e-03    1.0053185156e+05
    4.7204112634e-03    1.0051217969e+05
    4.7400193289e-03    1.0050383594e+05
    4.7596455552e-03    1.0049825000e+05
    4.7792894766e-03    1.0050422656e+05
    4.7989510931e-03    1.0051307031e+05
    4.8186304048e-03    1.0052410156e+05
    4.8383255489e-03    1.0054589844e+05
    4.8580355942e-03    1.0056889844e+05
    4.8777610064e-03    1.0058996094e+05
    4.8975008540e-03    1.0061535156e+05
    4.9172551371e-03    1.0064216406e+05
    4.9370229244e-03    1.0066991406e+05
    4.9568060786e-03    1.0069357031e+05
    4.9766036682e-03    1.0071705469e+05
    4.9964170903e-03    1.0073996094e+05
    5.0162458792e-03    1.0075733594e+05
    5.0360900350e-03    1.0077128125e+05
    5.0559476949e-03    1.0078171094e+05
    5.0758207217e-03    1.0079074219e+05
    5.0957072526e-03    1.0079606250e+05
    5.1156077534e-03    1.0080003906e+05
    5.1355226897e-03    1.0080047656e+05
    5.1554525271e-03    1.0080178906e+05
    5.1753963344e-03    1.0080427344e+05
    5.1953555085e-03    1.0079646094e+05
    5.2153295837e-03    1.0079485156e+05
    5.2353194915e-03    1.0078825781e+05
    5.2553247660e-03    1.0078397656e+05
    5.2753463387e-03    1.0077964844e+05
    5.2953832783e-03    1.0077996094e+05
    5.3154369816e-03    1.0078066406e+05
    5.3355065174e-03    1.0078214844e+05
    5.3555918857e-03    1.0078471094e+05
    5.3756926209e-03    1.0079047656e+05
    5.3958082572e-03    1.0079711719e+05
    5.4159392603e-03    1.0080196094e+05
    5.4360851645e-03    1.0080692969e+05
    5.4562464356e-03    1.0081689844e+05
    5.4764230736e-03    1.0082296875e+05
    5.4966160096e-03    1.0082936719e+05
    5.5168238468e-03    1.0084246094e+05
    5.5370470509e-03    1.0085075781e+05
    5.5572865531e-03    1.0085634375e+05
    5.5775423534e-03    1.0086184375e+05
    5.5978130549e-03    1.0086715625e+05
    5.6181000546e-03    1.0087271875e+05
    5.6384028867e-03    1.0088103906e+05
    5.6587206200e-03    1.0089483594e+05
    5.6790532544e-03    1.0090266406e+05
    5.6994007900e-03    1.0091613281e+05
    5.7197632268e-03    1.0093091406e+05
    5.7401410304e-03    1.0095203906e+05
    5.7605337352e-03    1.0098265625e+05
    5.7809422724e-03    1.0103347656e+05
    5.8013652451e-03    1.0114103906e+05
    5.8218040504e-03    1.0136418750e+05
    5.8422577567e-03    1.0185903906e+05
    5.8627268299e-03    1.0294477344e+05
    5.8832112700e-03    1.0523239844e+05
    5.9037101455e-03    1.0961925781e+05
    5.9242248535e-03    1.1692710156e+05
    5.9447535314e-03    1.2733590625e+05
    5.9641525149e-03    1.3982328125e+05
    5.9830932878e-03    1.5158328125e+05
    6.0020405799e-03    1.6122317188e+05
    6.0210367665e-03    1.6799673438e+05
    6.0400799848e-03    1.7174314062e+05
    6.0591096990e-03    1.7300682812e+05
    6.0781282373e-03    1.7260903125e+05
    6.0972142965e-03    1.7132095312e+05
    6.1162756756e-03    1.6969826562e+05
    6.1353649944e-03    1.6796835938e+05
    6.1544459313e-03    1.6614421875e+05
    6.1734300107e-03    1.6413284375e+05
    6.1924448237e-03    1.6195476562e+05
    6.2115197070e-03    1.5963209375e+05
    6.2306127511e-03    1.5723432812e+05
    6.2497169711e-03    1.5482760938e+05
    6.2688281760e-03    1.5247879688e+05
    6.2879407778e-03    1.5021070312e+05
    6.3070552424e-03    1.4805614062e+05
    6.3261794858e-03    1.4599114062e+05
    6.3453060575e-03    1.4402870312e+05
    6.3644465990e-03    1.4214167188e+05
    6.3835908659e-03    1.4031879688e+05
    6.4027444459e-03    1.3853879688e+05
    6.4219115302e-03    1.3680360938e+05
    6.4410855994e-03    1.3511356250e+05
    6.4602680504e-03    1.3348271875e+05
    6.4794607460e-03    1.3191217188e+05
    6.4986641519e-03    1.3041960156e+05
    6.5178787336e-03    1.2899378906e+05
    6.5371058881e-03    1.2763237500e+05
    6.5563363023e-03    1.2632828125e+05
    6.5755699761e-03    1.2508464844e+05
    6.5948092379e-03    1.2389421875e+05
    6.6140629351e-03    1.2276412500e+05
    6.6333152354e-03    1.2169638281e+05
    6.6525745206e-03    1.2068691406e+05
    6.6718445159e-03    1.1973596094e+05
    6.6911154427e-03    1.1884717969e+05
    6.7104012705e-03    1.1800797656e+05
    6.7296870984e-03    1.1722767969e+05
    6.7489854991e-03    1.1649828906e+05
    6.7682852969e-03    1.1581903906e+05
    6.7875892855e-03    1.1517862500e+05
    6.8069072440e-03    1.1457257031e+05
    6.8262196146e-03    1.1399833594e+05
    6.8455408327e-03    1.1344719531e+05
    6.8648783490e-03    1.1292785156e+05
    6.8842126057e-03    1.1243775000e+05
    6.9035501219e-03    1.1197141406e+05
    6.9228983484e-03    1.1153505469e+05
    6.9422605447e-03    1.1112734375e+05
    6.9616222754e-03    1.1076106250e+05
    6.9809844717e-03    1.1042831250e+05
    7.0003494620e-03    1.1014652344e+05
    7.0197195746e-03    1.0990810156e+05
    7.0390999317e-03    1.0973060156e+05
    7.0584909990e-03    1.0960411719e+05
    7.0778946392e-03    1.0953144531e+05
    7.0973108523e-03    1.0950711719e+05
    7.1167377755e-03    1.0952635156e+05
    7.1361698210e-03    1.0957697656e+05
    7.1556069888e-03    1.0966085156e+05
    7.1750483476e-03    1.0976017969e+05
    7.1944966912e-03    1.0987141406e+05
    7.2139529511e-03    1.0998141406e+05
    7.2334166616e-03    1.1008460156e+05
    7.2528840974e-03    1.1016972656e+05
    7.2723543271e-03    1.1023989844e+05
    7.2918278165e-03    1.1029468750e+05
    7.3113050312e-03    1.1033867969e+05
    7.3307845742e-03    1.1036596875e+05
    7.3502692394e-03    1.1037883594e+05
    7.3697618209e-03    1.1038778125e+05
    7.3892641813e-03    1.1038721094e+05
    7.4087800458e-03    1.1038582031e+05
    7.4282912537e-03    1.1037843750e+05
    7.4477996677e-03    1.1036664844e+05
    7.4673094787e-03    1.1035818750e+05
    7.4868267402e-03    1.1035146875e+05
    7.5063589029e-03    1.1033827344e+05
    7.5258887373e-03    1.1032859375e+05
    7.5454111211e-03    1.1032710156e+05
    7.5649353676e-03    1.1031977344e+05
    7.5844703242e-03    1.1032011719e+05
    7.6040057465e-03    1.1032012500e+05
    7.6235276647e-03    1.1031516406e+05
    7.6430505142e-03    1.1031481250e+05
    7.6625877991e-03    1.1031138281e+05
    7.6821087860e-03    1.1030811719e+05
    7.7016241848e-03    1.1029878906e+05
    7.7211544849e-03    1.1028463281e+05
    7.7406810597e-03    1.1026052344e+05
    7.7602043748e-03    1.1022737500e+05
    7.7797495760e-03    1.1018532031e+05
    7.7992938459e-03    1.1012833594e+05
    7.8188432381e-03    1.1006221875e+05
    7.8384252265e-03    1.0998455469e+05
    7.8580006957e-03    1.0990027344e+05
    7.8775910661e-03    1.0981102344e+05
    7.8972103074e-03    1.0971294531e+05
    7.9168286175e-03    1.0962589844e+05
    7.9364804551e-03    1.0953958594e+05
    7.9561360180e-03    1.0946466406e+05
    7.9758102074e-03    1.0939794531e+05
    7.9955114052e-03    1.0934272656e+05
    8.0152126029e-03    1.0929242969e+05
    8.0349491909e-03    1.0925241406e+05
    8.0546662211e-03    1.0921643750e+05
    8.0743944272e-03    1.0918139844e+05
    8.0941170454e-03    1.0914990625e+05
    8.1138620153e-03    1.0913016406e+05
    8.1336386502e-03    1.0911146094e+05
    8.1534720957e-03    1.0909453906e+05
    8.1733558327e-03    1.0908556250e+05
    8.1932730973e-03    1.0907860156e+05
    8.2132071257e-03    1.0906874219e+05
    8.2330890000e-03    1.0907078906e+05
    8.2529615611e-03    1.0907318750e+05
    8.2727763802e-03    1.0907666406e+05
    8.2926023751e-03    1.0908590625e+05
    8.3124246448e-03    1.0909038281e+05
    8.3322748542e-03    1.0908487500e+05
    8.3521194756e-03    1.0908135156e+05
    8.3719678223e-03    1.0906938281e+05
    8.3917891607e-03    1.0905438281e+05
    8.4116021171e-03    1.0903153125e+05
    8.4314141423e-03    1.0900747656e+05
    8.4512168542e-03    1.0897910156e+05
    8.4710381925e-03    1.0895427344e+05
    8.4908353165e-03    1.0892597656e+05
    8.5106678307e-03    1.0890027344e+05
    8.5304882377e-03    1.0886609375e+05
    8.5503393784e-03    1.0883171875e+05
    8.5699046031e-03    1.0879017969e+05
    8.5892248899e-03    1.0874469531e+05
    8.6083402857e-03    1.0869742969e+05
    8.6272666231e-03    1.0863844531e+05
    8.6460309103e-03    1.0858217969e+05
    8.6646731943e-03    1.0852187500e+05
    8.6832325906e-03    1.0846641406e+05
    8.7017398328e-03    1.0840666406e+05
    8.7202098221e-03    1.0835140625e+05
    8.7386453524e-03    1.0829855469e+05
    8.7570473552e-03    1.0825047656e+05
    8.7753897533e-03    1.0820447656e+05
    8.7936492637e-03    1.0816127344e+05
    8.8118780404e-03    1.0812002344e+05
    8.8300397620e-03    1.0808667969e+05
    8.8481390849e-03    1.0805467969e+05
    8.8662039489e-03    1.0802868750e+05
    8.8842641562e-03    1.0800377344e+05
    8.9023411274e-03    1.0798077344e+05
    8.9204348624e-03    1.0795707031e+05
    8.9385388419e-03    1.0793274219e+05
    8.9566456154e-03    1.0790561719e+05
    8.9747514576e-03    1.0787821875e+05
    8.9928600937e-03    1.0785340625e+05
    9.0109808370e-03    1.0782752344e+05
    9.0291155502e-03    1.0779640625e+05
    9.0472688898e-03    1.0776552344e+05
    9.0654399246e-03    1.0773308594e+05
    9.0836230665e-03    1.0770485156e+05
    9.1018192470e-03    1.0767214844e+05
    9.1200266033e-03    1.0763763281e+05
    9.1382460669e-03    1.0759787500e+05
    9.1564757749e-03    1.0755364844e+05
    9.1747231781e-03    1.0750466406e+05
    9.1929892078e-03    1.0745352344e+05
    9.2112747952e-03    1.0739568750e+05
    9.2295790091e-03    1.0733228906e+05
    9.2479009181e-03    1.0726922656e+05
    9.2662386596e-03    1.0719833594e+05
    9.2845931649e-03    1.0712827344e+05
    9.3029672280e-03    1.0705933594e+05
    9.3213599175e-03    1.0698597656e+05
    9.3397712335e-03    1.0691528125e+05
    9.3582011759e-03    1.0683918750e+05
    9.3766497448e-03    1.0676458594e+05
    9.3951150775e-03    1.0668853906e+05
    9.4135999680e-03    1.0660283594e+05
    9.4321016222e-03    1.0652727344e+05
    9.4506228343e-03    1.0645578125e+05
    9.4691645354e-03    1.0638878906e+05
    9.4877239317e-03    1.0633142969e+05
    9.5063010231e-03    1.0627953906e+05
    9.5248948783e-03    1.0622984375e+05
    9.5435054973e-03    1.0618346094e+05
    9.5621328801e-03    1.0614034375e+05
    9.5807760954e-03    1.0609644531e+05
    9.5994332805e-03    1.0605390625e+05
    9.6181081608e-03    1.0602240625e+05
    9.6367979422e-03    1.0599053906e+05
    9.6555035561e-03    1.0595484375e+05
    9.6742231399e-03    1.0592800000e+05
    9.6929576248e-03    1.0589272656e+05
    9.7117051482e-03    1.0585849219e+05
    9.7304685041e-03    1.0582561719e+05
    9.7492448986e-03    1.0579384375e+05
    9.7680361941e-03    1.0576624219e+05
    9.7868405282e-03    1.0573789844e+05
    9.8056588322e-03    1.0570219531e+05
    9.8244920373e-03    1.0566475781e+05
    9.8433364183e-03    1.0561834375e+05
    9.8621929064e-03    1.0557172656e+05
    9.8810633644e-03    1.0552503125e+05
    9.8999459296e-03    1.0547817969e+05
    9.9188406020e-03    1.0543133594e+05
    9.9377483130e-03    1.0539402344e+05
    9.9566690624e-03    1.0535722656e+05
    9.9756028503e-03    1.0531053906e+05
    9.9945487455e-03    1.0526257031e+05
    1.0013507679e-02    1.0520341406e+05
    1.0032479651e-02    1.0513639844e+05
    1.0051463731e-02    1.0506821875e+05
    1.0070459917e-02    1.0499132031e+05
    1.0089469142e-02    1.0491813281e+05
    1.0108492337e-02    1.0483812500e+05
    1.0127528571e-02    1.0475671094e+05
    1.0146577843e-02    1.0466916406e+05
    1.0165639222e-02    1.0458932031e+05
    1.0184712708e-02    1.0451352344e+05
    1.0203798302e-02    1.0444534375e+05
    1.0222896002e-02    1.0438313281e+05
    1.0242006741e-02    1.0432941406e+05
    1.0261129588e-02    1.0428468750e+05
    1.0280264542e-02    1.0425444531e+05
    1.0299413465e-02    1.0423090625e+05
    1.0318575427e-02    1.0422058594e+05
    1.0337748565e-02    1.0421274219e+05
    1.0356934741e-02    1.0420597656e+05
    1.0376133956e-02    1.0420310156e+05
    1.0395346209e-02    1.0419372656e+05
    1.0414571501e-02    1.0418453906e+05
    1.0433809832e-02    1.0416847656e+05
    1.0453061201e-02    1.0413969531e+05
    1.0472324677e-02    1.0411355469e+05
    1.0491601191e-02    1.0408708594e+05
    1.0510892607e-02    1.0405528906e+05
    1.0530196130e-02    1.0402411719e+05
    1.0549513623e-02    1.0399616406e+05
    1.0568842292e-02    1.0397163281e+05
    1.0588183999e-02    1.0394787500e+05
    1.0607538745e-02    1.0392228906e+05
    1.0626907460e-02    1.0390153906e+05
    1.0646289214e-02    1.0388339844e+05
    1.0665684007e-02    1.0386744531e+05
    1.0685092770e-02    1.0384866406e+05
    1.0704516433e-02    1.0383716406e+05
    1.0723951273e-02    1.0381646875e+05
    1.0743400082e-02    1.0379619531e+05
    1.0762862861e-02    1.0377616406e+05
    1.0782338679e-02    1.0375621094e+05
    1.0801829398e-02    1.0373616406e+05
    1.0821334086e-02    1.0370696094e+05
    1.0840852745e-02    1.0368696094e+05
    1.0860386305e-02    1.0367150781e+05
    1.0879932903e-02    1.0365293750e+05
    1.0899493471e-02    1.0364437500e+05
    1.0919069871e-02    1.0363025000e+05
    1.0938662104e-02    1.0362702344e+05
    1.0958270170e-02    1.0362239844e+05
    1.0977892205e-02    1.0361918750e+05
    1.0997531936e-02    1.0360766406e+05
    1.1017187499e-02    1.0360597656e+05
    1.1036860757e-02    1.0359846094e+05
    1.1056551710e-02    1.0359127344e+05
    1.1076259427e-02    1.0357860156e+05
    1.1095987633e-02    1.0356571094e+05
    1.1115733534e-02    1.0355542969e+05
    1.1135498993e-02    1.0354288281e+05
    1.1155283079e-02    1.0352947656e+05
    1.1175086722e-02    1.0350771094e+05
    1.1194912717e-02    1.0348305469e+05
    1.1214758269e-02    1.0345464844e+05
    1.1234625243e-02    1.0342903906e+05
    1.1254511774e-02    1.0340214844e+05
    1.1274418794e-02    1.0337419531e+05
    1.1294347234e-02    1.0334524219e+05
    1.1314296164e-02    1.0331556250e+05
    1.1334266514e-02    1.0329471094e+05
    1.1354257353e-02    1.0325727344e+05
    1.1374268681e-02    1.0322277344e+05
    1.1394302361e-02    1.0319003125e+05
    1.1414355598e-02    1.0315644531e+05
    1.1434430256e-02    1.0311771094e+05
    1.1454525404e-02    1.0308192969e+05
    1.1474640109e-02    1.0304939844e+05
    1.1494777165e-02    1.0302246094e+05
    1.1514934711e-02    1.0300060156e+05
    1.1535113677e-02    1.0300822656e+05
    1.1555313133e-02    1.0304415625e+05
    1.1575534008e-02    1.0312205469e+05
    1.1595774442e-02    1.0325213281e+05
    1.1616035365e-02    1.0344264844e+05
    1.1636316776e-02    1.0372143750e+05
    1.1656619608e-02    1.0408941406e+05
    1.1676942930e-02    1.0458021094e+05
    1.1697287671e-02    1.0519591406e+05
    1.1717652902e-02    1.0593363281e+05
    1.1738038622e-02    1.0678221094e+05
    1.1758443899e-02    1.0770708594e+05
    1.1778870597e-02    1.0865165625e+05
    1.1799318716e-02    1.0955856250e+05
    1.1819788255e-02    1.1034889844e+05
    1.1840280145e-02    1.1097472656e+05
    1.1860790662e-02    1.1138409375e+05
    1.1881321669e-02    1.1156016406e+05
    1.1901874095e-02    1.1149949219e+05
    1.1922447011e-02    1.1123156250e+05
    1.1943042278e-02    1.1077617969e+05
    1.1963658035e-02    1.1018393750e+05
    1.1984295212e-02    1.0949750000e+05
    1.2004952878e-02    1.0875821094e+05
    1.2025631964e-02    1.0802437500e+05
    1.2046331540e-02    1.0733421094e+05
    1.2067052536e-02    1.0671900000e+05
    1.2087795883e-02    1.0619225000e+05
    1.2108558789e-02    1.0575258594e+05
    1.2129344046e-02    1.0537519531e+05
    1.2150149792e-02    1.0502824219e+05
    1.2170976959e-02    1.0468255469e+05
    1.2191825546e-02    1.0430940625e+05
    1.2212695554e-02    1.0389996094e+05
    1.2233586982e-02    1.0344124219e+05
    1.2254500762e-02    1.0294133594e+05
    1.2275436893e-02    1.0240990625e+05
    1.2296394445e-02    1.0186064844e+05
    1.2317374349e-02    1.0130641406e+05
    1.2338375673e-02    1.0076897656e+05
    1.2359398417e-02    1.0026308594e+05
    1.2380442582e-02    9.9804289062e+04
    1.2401508167e-02    9.9393617188e+04
    1.2422595173e-02    9.9038476562e+04
    1.2443703599e-02    9.8734460938e+04
    1.2464834377e-02    9.8479773438e+04
    1.2485986575e-02    9.8275375000e+04
    1.2507158332e-02    9.8119093750e+04
    1.2528351508e-02    9.8001851562e+04
    1.2549565174e-02    9.7940929688e+04
    1.2570801191e-02    9.7920226562e+04
    1.2592058629e-02    9.7945367188e+04
    1.2613337487e-02    9.8020460938e+04
    1.2634636834e-02    9.8135656250e+04
    1.2655957602e-02    9.8295281250e+04
    1.2677297927e-02    9.8491945312e+04
    1.2698660605e-02    9.8723976562e+04
    1.2720043771e-02    9.8984687500e+04
    1.2741449289e-02    9.9260335938e+04
    1.2762876227e-02    9.9541367188e+04
    1.2784325518e-02    9.9812476562e+04
    1.2805794366e-02    1.0006950000e+05
    1.2827285565e-02    1.0029572656e+05
    1.2848797254e-02    1.0048627344e+05
    1.2870330364e-02    1.0063964844e+05
    1.2891885825e-02    1.0075847656e+05
    1.2913462706e-02    1.0084697656e+05
    1.2935061008e-02    1.0091196094e+05
    1.2956679799e-02    1.0095635156e+05
    1.2978320010e-02    1.0098488281e+05
    1.2999981642e-02    1.0101646094e+05
    1.3021663763e-02    1.0104463281e+05
    1.3043368235e-02    1.0107766406e+05
    1.3065092266e-02    1.0112250781e+05
    1.3086837716e-02    1.0116128906e+05
    1.3108605519e-02    1.0121100781e+05
    1.3130392879e-02    1.0125488281e+05
    1.3152201660e-02    1.0129146094e+05
    1.3174032792e-02    1.0132864844e+05
    1.3195885345e-02    1.0136593750e+05
    1.3217759319e-02    1.0140455469e+05
    1.3239653781e-02    1.0144433594e+05
    1.3261569664e-02    1.0148853906e+05
    1.3283506967e-02    1.0154159375e+05
    1.3305463828e-02    1.0158562500e+05
    1.3327440247e-02    1.0163892969e+05
    1.3349435292e-02    1.0170180469e+05
    1.3371448033e-02    1.0175513281e+05
    1.3393475674e-02    1.0180093750e+05
    1.3415516354e-02    1.0184488281e+05
    1.3437564485e-02    1.0187860156e+05
    1.3459613547e-02    1.0190378125e+05
    1.3481658883e-02    1.0191787500e+05
    1.3503690250e-02    1.0192530469e+05
    1.3525702059e-02    1.0192044531e+05
    1.3547683135e-02    1.0191014844e+05
    1.3569628820e-02    1.0189471094e+05
    1.3591531664e-02    1.0187055469e+05
    1.3613392599e-02    1.0184103906e+05
    1.3635210693e-02    1.0182196875e+05
    1.3656994328e-02    1.0180209375e+05
    1.3678749092e-02    1.0178533594e+05
    1.3700488023e-02    1.0176403125e+05
    1.3722228818e-02    1.0175378906e+05
    1.3743981719e-02    1.0173925781e+05
    1.3765762560e-02    1.0173107031e+05
    1.3787578791e-02    1.0171853125e+05
    1.3809437864e-02    1.0171066406e+05
    1.3831341639e-02    1.0170283594e+05
    1.3853288256e-02    1.0169242969e+05
    1.3875273056e-02    1.0168614844e+05
    1.3897285797e-02    1.0167803906e+05
    1.3919321820e-02    1.0167353125e+05
    1.3941374607e-02    1.0166060156e+05
    1.3963440433e-02    1.0164632031e+05
    1.3985517435e-02    1.0163278906e+05
    1.4007603750e-02    1.0161733594e+05
    1.4029704034e-02    1.0160428906e+05
    1.4051820152e-02    1.0158574219e+05
    1.4073957689e-02    1.0156827344e+05
    1.4096121304e-02    1.0155103906e+05
    1.4118315652e-02    1.0151999219e+05
    1.4140545391e-02    1.0149352344e+05
    1.4162814245e-02    1.0146077344e+05
    1.4185124077e-02    1.0142299219e+05
    1.4207473956e-02    1.0138596094e+05
    1.4229862019e-02    1.0134996875e+05
    1.4252286404e-02    1.0131072656e+05
    1.4274741523e-02    1.0127490625e+05
    1.4297228307e-02    1.0123815625e+05
    1.4319745824e-02    1.0120111719e+05
    1.4342290349e-02    1.0117275000e+05
    1.4364863746e-02    1.0113565625e+05
    1.4387467876e-02    1.0110285156e+05
    1.4410103671e-02    1.0107513281e+05
    1.4432771131e-02    1.0104730469e+05
    1.4455472119e-02    1.0102489844e+05
    1.4478209428e-02    1.0099727344e+05
    1.4500979334e-02    1.0096988281e+05
    1.4523783699e-02    1.0094344531e+05
    1.4546621591e-02    1.0091716406e+05
    1.4569494873e-02    1.0089116406e+05
    1.4592399821e-02    1.0086547656e+05
    1.4615339227e-02    1.0083793750e+05
    1.4638305642e-02    1.0081446875e+05
    1.4661304653e-02    1.0078909375e+05
    1.4684336260e-02    1.0076831250e+05
    1.4707398601e-02    1.0074968750e+05
    1.4730494469e-02    1.0073618750e+05
    1.4753622934e-02    1.0072467969e+05
    1.4776783995e-02    1.0071509375e+05
    1.4799979515e-02    1.0070761719e+05
    1.4823205769e-02    1.0070444531e+05
    1.4846466482e-02    1.0070669531e+05
    1.4869757928e-02    1.0070942969e+05
    1.4893081971e-02    1.0071360156e+05
    1.4916437678e-02    1.0073488281e+05
    1.4939822257e-02    1.0075058594e+05
    1.4963239431e-02    1.0076869531e+05
    1.4986685477e-02    1.0078696094e+05
    1.5010161325e-02    1.0080641406e+05
    1.5033668838e-02    1.0082431250e+05
    1.5057205223e-02    1.0084188281e+05
    1.5080772340e-02    1.0085819531e+05
    1.5104367398e-02    1.0087291406e+05
    1.5127992257e-02    1.0089067969e+05
    1.5151646920e-02    1.0089989844e+05
    1.5175330453e-02    1.0090471094e+05
    1.5199041925e-02    1.0091053906e+05
    1.5222782269e-02    1.0091612500e+05
    1.5246548690e-02    1.0092156250e+05
    1.5270343982e-02    1.0092707031e+05
    1.5294168144e-02    1.0092493750e+05
    1.5318016522e-02    1.0092668750e+05
    1.5341891907e-02    1.0092978125e+05
    1.5365792438e-02    1.0093241406e+05
    1.5389721841e-02    1.0094560156e+05
    1.5413676389e-02    1.0095800781e+05
    1.5437657945e-02    1.0097646094e+05
    1.5461664647e-02    1.0099603906e+05
    1.5485695563e-02    1.0101647656e+05
    1.5509752557e-02    1.0103785156e+05
    1.5533835627e-02    1.0106041406e+05
    1.5557944775e-02    1.0108328906e+05
    1.5582079068e-02    1.0111622656e+05
    1.5606240369e-02    1.0114366406e+05
    1.5630424023e-02    1.0117365625e+05
    1.5654634684e-02    1.0120025781e+05
    1.5678871423e-02    1.0122035156e+05
    1.5703132376e-02    1.0124771094e+05
    1.5727419406e-02    1.0126637500e+05
    1.5751728788e-02    1.0128763281e+05
    1.5776060522e-02    1.0131316406e+05
    1.5800418332e-02    1.0133172656e+05
    1.5824800357e-02    1.0134963281e+05
    1.5849204734e-02    1.0136315625e+05
    1.5873633325e-02    1.0137297656e+05
    1.5898084268e-02    1.0138208594e+05
    1.5922557563e-02    1.0138841406e+05
    1.5947058797e-02    1.0139884375e+05
    1.5971582383e-02    1.0140716406e+05
    1.5996130183e-02    1.0141053906e+05
    1.6020702198e-02    1.0141266406e+05
    1.6045298427e-02    1.0140935156e+05
    1.6069920734e-02    1.0140868750e+05
    1.6094569117e-02    1.0140225000e+05
    1.6119243577e-02    1.0140291406e+05
    1.6143942252e-02    1.0140730469e+05
    1.6168667004e-02    1.0140471094e+05
    1.6193419695e-02    1.0141010156e+05
    1.6218200326e-02    1.0140597656e+05
    1.6243007034e-02    1.0141060156e+05
    1.6267839819e-02    1.0142246094e+05
    1.6292702407e-02    1.0142977344e+05
    1.6317596659e-02    1.0143574219e+05
    1.6342513263e-02    1.0145138281e+05
    1.6367461532e-02    1.0145822656e+05
    1.6392435879e-02    1.0147374219e+05
    1.6417443752e-02    1.0149008594e+05
    1.6442479566e-02    1.0151638281e+05
    1.6467543319e-02    1.0152574219e+05
    1.6492636874e-02    1.0154471094e+05
    1.6517756507e-02    1.0155392969e+05
    1.6542907804e-02    1.0155864844e+05
    1.6568088904e-02    1.0157142969e+05
    1.6593271866e-02    1.0158039844e+05
    1.6618426889e-02    1.0158971094e+05
    1.6643559560e-02    1.0159935156e+05
    1.6668669879e-02    1.0159980469e+05
    1.6693757847e-02    1.0159785156e+05
    1.6718825325e-02    1.0159827344e+05
    1.6743874177e-02    1.0160158594e+05
    1.6768900678e-02    1.0160416406e+05
    1.6793908551e-02    1.0161203906e+05
    1.6818899661e-02    1.0161072656e+05
    1.6843874007e-02    1.0160925781e+05
    1.6868829727e-02    1.0160728906e+05
    1.6893770546e-02    1.0160689844e+05
    1.6918692738e-02    1.0160930469e+05
    1.6943598166e-02    1.0161402344e+05
    1.6968490556e-02    1.0161821094e+05
    1.6993366182e-02    1.0162155469e+05
    1.7018226907e-02    1.0161496094e+05
    1.7043072730e-02    1.0160672656e+05
    1.7067901790e-02    1.0160659375e+05
    1.7092714086e-02    1.0160596094e+05
    1.7117511481e-02    1.0160664844e+05
    1.7142292112e-02    1.0160296094e+05
    1.7167057842e-02    1.0160366406e+05
    1.7191808671e-02    1.0159921875e+05
    1.7216544598e-02    1.0159746094e+05
    1.7241263762e-02    1.0160364844e+05
    1.7265968025e-02    1.0160539844e+05
    1.7290659249e-02    1.0160581250e+05
    1.7315333709e-02    1.0160671875e+05
    1.7339993268e-02    1.0161736719e+05
    1.7364639789e-02    1.0162956250e+05
    1.7389267683e-02    1.0165178125e+05
    1.7413880676e-02    1.0166617969e+05
    1.7438478768e-02    1.0168127344e+05
    1.7463061959e-02    1.0170730469e+05
    1.7487626523e-02    1.0173558594e+05
    1.7512176186e-02    1.0178531250e+05
    1.7536709085e-02    1.0183894531e+05
    1.7561223358e-02    1.0190577344e+05
    1.7585720867e-02    1.0198296094e+05
    1.7610201612e-02    1.0207009375e+05
    1.7634663731e-02    1.0217302344e+05
    1.7659107223e-02    1.0228346094e+05
    1.7683532089e-02    1.0239657031e+05
    1.7707940191e-02    1.0250977344e+05
    1.7732329667e-02    1.0261780469e+05
    1.7756698653e-02    1.0271200781e+05
    1.7781050876e-02    1.0278100000e+05
    1.7805384472e-02    1.0283346094e+05
    1.7829699442e-02    1.0284650000e+05
    1.7853999510e-02    1.0283331250e+05
    1.7878280953e-02    1.0278194531e+05
    1.7902545631e-02    1.0269378906e+05
    1.7926793545e-02    1.0257294531e+05
    1.7951028422e-02    1.0241089844e+05
    1.7975246534e-02    1.0221152344e+05
    1.7999447882e-02    1.0197741406e+05
    1.8023636192e-02    1.0171941406e+05
    1.8047811463e-02    1.0146167969e+05
    1.8071975559e-02    1.0121640625e+05
    1.8096126616e-02    1.0099588281e+05
    1.8120266497e-02    1.0079407031e+05
    1.8144397065e-02    1.0061375781e+05
    1.8168520182e-02    1.0046747656e+05
    1.8192630261e-02    1.0034706250e+05
    1.8216732889e-02    1.0026760156e+05
    1.8240824342e-02    1.0022425781e+05
    1.8264908344e-02    1.0021597656e+05
    1.8288983032e-02    1.0024708594e+05
    1.8313048407e-02    1.0030853906e+05
    1.8337102607e-02    1.0040031250e+05
    1.8361147493e-02    1.0051753906e+05
    1.8385183066e-02    1.0065738281e+05
    1.8409207463e-02    1.0081140625e+05
    1.8433224410e-02    1.0097380469e+05
    1.8457230181e-02    1.0114253906e+05
    1.8481226638e-02    1.0131210156e+05
    1.8505210057e-02    1.0147993750e+05
    1.8529184163e-02    1.0164424219e+05
    1.8553148955e-02    1.0179650000e+05
    1.8577100709e-02    1.0193146094e+05
    1.8601041287e-02    1.0204864844e+05
    1.8624972552e-02    1.0213822656e+05
    1.8648892641e-02    1.0221124219e+05
    1.8672801554e-02    1.0226960156e+05
    1.8696699291e-02    1.0231006250e+05
    1.8720587716e-02    1.0233708594e+05
    1.8744463101e-02    1.0234985156e+05
    1.8768329173e-02    1.0236064844e+05
    1.8792184070e-02    1.0236262500e+05
    1.8816027790e-02    1.0236853906e+05
    1.8839860335e-02    1.0237346875e+05
    1.8863683566e-02    1.0238465625e+05
    1.8887493759e-02    1.0239334375e+05
    1.8911294639e-02    1.0240666406e+05
    1.8935086206e-02    1.0242122656e+05
    1.8958866596e-02    1.0243178125e+05
    1.8982635811e-02    1.0244396094e+05
    1.9006397575e-02    1.0245000781e+05
    1.9030146301e-02    1.0245418750e+05
    1.9053885713e-02    1.0245650000e+05
    1.9077615812e-02    1.0246062500e+05
    1.9101334736e-02    1.0246446094e+05
    1.9125042483e-02    1.0246146094e+05
    1.9148740917e-02    1.0245643750e+05
    1.9172428176e-02    1.0244896094e+05
    1.9196104258e-02    1.0243002344e+05
    1.9219771028e-02    1.0241744531e+05
    1.9243424758e-02    1.0240199219e+05
    1.9267069176e-02    1.0238425781e+05
    1.9290700555e-02    1.0235889844e+05
    1.9314322621e-02    1.0233208594e+05
    1.9337931648e-02    1.0230140625e+05
    1.9361529499e-02    1.0226893750e+05
    1.9385114312e-02    1.0224257031e+05
    1.9408687949e-02    1.0221128906e+05
    1.9432250410e-02    1.0219256250e+05
    1.9455801696e-02    1.0217496875e+05
    1.9479339942e-02    1.0215850781e+05
    1.9502865151e-02    1.0213996094e+05
    1.9526379183e-02    1.0212383594e+05
    1.9549878314e-02    1.0210977344e+05
    1.9573366269e-02    1.0210527344e+05
    1.9596841186e-02    1.0210132031e+05
    1.9620303065e-02    1.0209335156e+05
    1.9643751904e-02    1.0208708594e+05
    1.9667187706e-02    1.0207819531e+05
    1.9690606743e-02    1.0207175781e+05
    1.9714014605e-02    1.0206409375e+05
    1.9737409428e-02    1.0206425000e+05
    1.9760791212e-02    1.0206528906e+05
    1.9784159958e-02    1.0206178906e+05
    1.9807513803e-02    1.0206003906e+05
    1.9830854610e-02    1.0205721094e+05
    1.9854182377e-02    1.0205564844e+05
    1.9877497107e-02    1.0204521094e+05
    1.9900798798e-02    1.0204292969e+05
    1.9924087450e-02    1.0203691406e+05
    1.9947361201e-02    1.0203764844e+05
    1.9970623776e-02    1.0203438281e+05
    1.9993871450e-02    1.0202878906e+05
    2.0017107949e-02    1.0202300000e+05
    2.0040329546e-02    1.0201757031e+05
    2.0063538104e-02    1.0201727344e+05
    2.0086731762e-02    1.0200819531e+05
    2.0109914243e-02    1.0200356250e+05
    2.0133081824e-02    1.0200819531e+05
    2.0156236365e-02    1.0200364844e+05
    2.0179376006e-02    1.0200925000e+05
    2.0202504471e-02    1.0200425781e+05
    2.0225618035e-02    1.0199353906e+05
    2.0248720422e-02    1.0198910156e+05
    2.0271807909e-02    1.0198492969e+05
    2.0294882357e-02    1.0199053125e+05
    2.0317947492e-02    1.0198739844e+05
    2.0340997726e-02    1.0198452344e+05
    2.0364036784e-02    1.0198111719e+05
    2.0387060940e-02    1.0197741406e+05
    2.0410073921e-02    1.0197302344e+05
    2.0433073863e-02    1.0196453906e+05
    2.0456060767e-02    1.0195741406e+05
    2.0479036495e-02    1.0195978906e+05
    2.0501999184e-02    1.0195602344e+05
    2.0524948835e-02    1.0195259375e+05
    2.0547885448e-02    1.0194966406e+05
    2.0570809022e-02    1.0195606250e+05
    2.0593719557e-02    1.0195400000e+05
    2.0616617054e-02    1.0195971094e+05
    2.0639499649e-02    1.0196053906e+05
    2.0662369207e-02    1.0195535156e+05
    2.0685223863e-02    1.0195719531e+05
    2.0708063617e-02    1.0195834375e+05
    2.0730890334e-02    1.0195707031e+05
    2.0753700286e-02    1.0196146094e+05
    2.0776495337e-02    1.0196521094e+05
    2.0799275488e-02    1.0197064844e+05
    2.0822042599e-02    1.0197533594e+05
    2.0844791085e-02    1.0196703125e+05
    2.0867524669e-02    1.0196824219e+05
    2.0890241489e-02    1.0197908594e+05
    2.0912945271e-02    1.0198082031e+05
    2.0935632288e-02    1.0198271094e+05
    2.0958306268e-02    1.0198427344e+05
    2.0980965346e-02    1.0198527344e+05
    2.1003607661e-02    1.0198675000e+05
    2.1026238799e-02    1.0199124219e+05
    2.1048855036e-02    1.0199050781e+05
    2.1071458235e-02    1.0199771875e+05
    2.1094048396e-02    1.0200399219e+05
    2.1116625518e-02    1.0200589844e+05
    2.1139191464e-02    1.0200296094e+05
    2.1161744371e-02    1.0200577344e+05
    2.1184286103e-02    1.0201247656e+05
    2.1206818521e-02    1.0201521875e+05
    2.1229337901e-02    1.0201778906e+05
    2.1251846105e-02    1.0202040625e+05
    2.1274344996e-02    1.0202286719e+05
    2.1296832711e-02    1.0202532031e+05
    2.1319312975e-02    1.0202778125e+05
    2.1341778338e-02    1.0202577344e+05
    2.1364232525e-02    1.0203169531e+05
    2.1386675537e-02    1.0202996875e+05
    2.1409107372e-02    1.0203433594e+05
    2.1431528032e-02    1.0202953906e+05
    2.1453931928e-02    1.0203172656e+05
    2.1476324648e-02    1.0203628906e+05
    2.1498700604e-02    1.0204053906e+05
    2.1521063522e-02    1.0203671094e+05
    2.1543409675e-02    1.0203824219e+05
    2.1565740928e-02    1.0204488281e+05
    2.1588053554e-02    1.0204689844e+05
    2.1610351279e-02    1.0204630469e+05
    2.1632634103e-02    1.0204547656e+05
    2.1654898301e-02    1.0205252344e+05
    2.1677147597e-02    1.0205808594e+05
    2.1699378267e-02    1.0205947656e+05
    2.1721594036e-02    1.0205868750e+05
    2.1743793041e-02    1.0205235156e+05
    2.1765975282e-02    1.0205321875e+05
    2.1788140759e-02    1.0205458594e+05
    2.1810289472e-02    1.0206135156e+05
    2.1832419559e-02    1.0205800781e+05
    2.1854531020e-02    1.0206000781e+05
    2.1876627579e-02    1.0206702344e+05
    2.1898705512e-02    1.0206296094e+05
    2.1920768544e-02    1.0205981250e+05
    2.1942811087e-02    1.0205971875e+05
    2.1964838728e-02    1.0205411719e+05
    2.1986849606e-02    1.0204657031e+05
    2.2008845583e-02    1.0204244531e+05
    2.2030822933e-02    1.0204140625e+05
    2.2052785382e-02    1.0204071094e+05
    2.2074732929e-02    1.0204567969e+05
    2.2096665576e-02    1.0204293750e+05
    2.2118583322e-02    1.0203989844e+05
    2.2140489891e-02    1.0203950000e+05
    2.2162377834e-02    1.0203925781e+05
    2.2184254602e-02    1.0203907031e+05
    2.2206118330e-02    1.0204132031e+05
    2.2227969021e-02    1.0204346094e+05
    2.2249806672e-02    1.0204333594e+05
    2.2271629423e-02    1.0204782031e+05
    2.2293440998e-02    1.0204890625e+05
    2.2315241396e-02    1.0206034375e+05
    2.2337028757e-02    1.0206322656e+05
    2.2358803079e-02    1.0207181250e+05
    2.2380566224e-02    1.0207950781e+05
    2.2402318195e-02    1.0208331250e+05
    2.2424057126e-02    1.0208684375e+05
    2.2445784882e-02    1.0209046875e+05
    2.2467501462e-02    1.0209432031e+05
    2.2489206865e-02    1.0210296094e+05
    2.2510899231e-02    1.0211022656e+05
    2.2532582283e-02    1.0211110156e+05
    2.2554252297e-02    1.0210686719e+05
    2.2575911134e-02    1.0210946094e+05
    2.2597560659e-02    1.0211209375e+05
    2.2619199008e-02    1.0211433594e+05
    2.2640828043e-02    1.0211608594e+05
    2.2662445903e-02    1.0211500000e+05
    2.2684050724e-02    1.0210757031e+05
    2.2705646232e-02    1.0210599219e+05
    2.2727232426e-02    1.0209803906e+05
    2.2748809308e-02    1.0209021875e+05
    2.2770375013e-02    1.0207996094e+05
    2.2791929543e-02    1.0207000000e+05
    2.2813472897e-02    1.0205799219e+05
    2.2835006937e-02    1.0204044531e+05
    2.2856531665e-02    1.0202690625e+05
    2.2878047079e-02    1.0201110156e+05
    2.2899549454e-02    1.0199947656e+05
    2.2921044379e-02    1.0198309375e+05
    2.2942528129e-02    1.0196996875e+05
    2.2964000702e-02    1.0194725781e+05
    2.2985465825e-02    1.0192827344e+05
    2.3006917909e-02    1.0191053906e+05
    2.3028360680e-02    1.0189734375e+05
    2.3049792275e-02    1.0188505469e+05
    2.3071214557e-02    1.0188128906e+05
    2.3092625663e-02    1.0187440625e+05
    2.3114029318e-02    1.0186983594e+05
    2.3135419935e-02    1.0186725000e+05
    2.3156799376e-02    1.0186960156e+05
    2.3178169504e-02    1.0187878125e+05
    2.3199530318e-02    1.0190028906e+05
    2.3220879957e-02    1.0191591406e+05
    2.3242218420e-02    1.0193450781e+05
    2.3263547570e-02    1.0196083594e+05
    2.3284865543e-02    1.0198822656e+05
    2.3306174204e-02    1.0201388281e+05
    2.3327469826e-02    1.0204121094e+05
    2.3348756135e-02    1.0207977344e+05
    2.3370031267e-02    1.0211332031e+05
    2.3391297087e-02    1.0215235156e+05
    2.3412553594e-02    1.0218996094e+05
    2.3433798924e-02    1.0222461719e+05
    2.3455033079e-02    1.0225946094e+05
    2.3476256058e-02    1.0228485156e+05
    2.3497469723e-02    1.0231922656e+05
    2.3518672213e-02    1.0235089844e+05
    2.3539865389e-02    1.0238259375e+05
    2.3561049253e-02    1.0240739844e+05
    2.3582221940e-02    1.0243153906e+05
    2.3603385314e-02    1.0245496094e+05
    2.3624535650e-02    1.0248146094e+05
    2.3645676672e-02    1.0249861719e+05
    2.3666808382e-02    1.0251838281e+05
    2.3687927052e-02    1.0252731250e+05
    2.3709038273e-02    1.0253425781e+05
    2.3730138317e-02    1.0253360156e+05
    2.3751227185e-02    1.0253387500e+05
    2.3772306740e-02    1.0252650781e+05
    2.3793375120e-02    1.0251412500e+05
    2.3814432323e-02    1.0249871094e+05
    2.3835480213e-02    1.0248052344e+05
    2.3856516927e-02    1.0245521875e+05
    2.3877544329e-02    1.0242114844e+05
    2.3898560554e-02    1.0238710156e+05
    2.3919565603e-02    1.0234508594e+05
    2.3940561339e-02    1.0229850000e+05
    2.3961545900e-02    1.0224499219e+05
    2.3982519284e-02    1.0218324219e+05
    2.4003483355e-02    1.0212431250e+05
    2.4024436250e-02    1.0206424219e+05
    2.4045377970e-02    1.0200672656e+05
    2.4066310376e-02    1.0195297656e+05
    2.4087233469e-02    1.0190310156e+05
    2.4108145386e-02    1.0186191406e+05
    2.4129044265e-02    1.0182696094e+05
    2.4149935693e-02    1.0180755469e+05
    2.4170814082e-02    1.0179103906e+05
    2.4191683158e-02    1.0178100781e+05
    2.4212542921e-02    1.0178825000e+05
    2.4233391508e-02    1.0179883594e+05
    2.4254228920e-02    1.0181862500e+05
    2.4275057018e-02    1.0184387500e+05
    2.4295873940e-02    1.0187041406e+05
    2.4316681549e-02    1.0190612500e+05
    2.4337477982e-02    1.0193728125e+05
    2.4358265102e-02    1.0197230469e+05
    2.4379042909e-02    1.0200133594e+05
    2.4399809539e-02    1.0202903125e+05
    2.4420566857e-02    1.0206305469e+05
    2.4441312999e-02    1.0208978906e+05
    2.4462047964e-02    1.0210877344e+05
    2.4482775480e-02    1.0213331250e+05
    2.4503491819e-02    1.0215013281e+05
    2.4524198845e-02    1.0216655469e+05
    2.4544894695e-02    1.0218496094e+05
    2.4565581232e-02    1.0219035156e+05
    2.4586258456e-02    1.0219489844e+05
    2.4606924504e-02    1.0220602344e+05
    2.4627581239e-02    1.0221278906e+05
    2.4648228660e-02    1.0221827344e+05
    2.4668866768e-02    1.0222053125e+05
    2.4689495564e-02    1.0222138281e+05
    2.4710113183e-02    1.0222084375e+05
    2.4730721489e-02    1.0222299219e+05
    2.4751318619e-02    1.0222958594e+05
    2.4771906435e-02    1.0223165625e+05
    2.4792486802e-02    1.0223207031e+05
    2.4813055992e-02    1.0222771094e+05
    2.4833614007e-02    1.0222246094e+05
    2.4854162708e-02    1.0222153125e+05
    2.4874702096e-02    1.0221885156e+05
    2.4895232171e-02    1.0222128906e+05
    2.4915752932e-02    1.0221940625e+05
    2.4936262518e-02    1.0221603906e+05
    2.4956764653e-02    1.0221350000e+05
    2.4977253750e-02    1.0220944531e+05
    2.4997735396e-02    1.0220140625e+05
    2.5018205866e-02    1.0219814844e+05
    2.5038668886e-02    1.0219131250e+05
    2.5059120730e-02    1.0218949219e+05
    2.5079563260e-02    1.0218949219e+05
    2.5099996477e-02    1.0218971094e+05
    2.5120420381e-02    1.0218453906e+05
    2.5140833110e-02    1.0218416406e+05
    2.5161236525e-02    1.0217958594e+05
    2.5181630626e-02    1.0218052344e+05
    2.5202017277e-02    1.0218142969e+05
    2.5222390890e-02    1.0218058594e+05
    2.5242757052e-02    1.0217944531e+05
    2.5263112038e-02    1.0217828906e+05
    2.5283459574e-02    1.0218635156e+05
    2.5303795934e-02    1.0218521875e+05
    2.5324124843e-02    1.0218360156e+05
    2.5344440714e-02    1.0218117969e+05
    2.5364749134e-02    1.0217828906e+05
    2.5385048240e-02    1.0217735156e+05
    2.5405339897e-02    1.0217446094e+05
    2.5425618514e-02    1.0217321875e+05
    2.5445887819e-02    1.0216975781e+05
    2.5466147810e-02    1.0216205469e+05
    2.5486400351e-02    1.0215807031e+05
    2.5506639853e-02    1.0215812500e+05
    2.5526873767e-02    1.0215410156e+05
    2.5547094643e-02    1.0214628125e+05
    2.5567308068e-02    1.0214242969e+05
    2.5587510318e-02    1.0213846875e+05
    2.5607703254e-02    1.0213456250e+05
    2.5627886876e-02    1.0213053125e+05
    2.5648061186e-02    1.0212683594e+05
    2.5668226182e-02    1.0212358594e+05
    2.5688380003e-02    1.0212346875e+05
    2.5708526373e-02    1.0212603125e+05
    2.5728661567e-02    1.0212652344e+05
    2.5748789310e-02    1.0212547656e+05
    2.5768904015e-02    1.0212466406e+05
    2.5789011270e-02    1.0212678125e+05
    2.5809109211e-02    1.0212897656e+05
    2.5829195976e-02    1.0213272656e+05
    2.5849273428e-02    1.0213277344e+05
    2.5869343430e-02    1.0213308594e+05
    2.5889402255e-02    1.0213857031e+05
    2.5909451768e-02    1.0213889844e+05
    2.5929493830e-02    1.0213928906e+05
    2.5949522853e-02    1.0214180469e+05
    2.5969544426e-02    1.0214233594e+05
    2.5989556685e-02    1.0214480469e+05
    2.6009559631e-02    1.0214519531e+05
    2.6029553264e-02    1.0214517969e+05
    2.6049537584e-02    1.0214075781e+05
    2.6069512591e-02    1.0214008594e+05
    2.6089478284e-02    1.0214327344e+05
    2.6109432802e-02    1.0214288281e+05
    2.6129379869e-02    1.0214303906e+05
    2.6149315760e-02    1.0214364844e+05
    2.6169244200e-02    1.0214012500e+05
    2.6189163327e-02    1.0214042969e+05
    2.6209073141e-02    1.0214053125e+05
    2.6228975505e-02    1.0214046094e+05
    2.6248866692e-02    1.0214050000e+05
    2.6268748567e-02    1.0214102344e+05
    2.6288621128e-02    1.0214178906e+05
    2.6308484375e-02    1.0214271094e+05
    2.6328338310e-02    1.0214358594e+05
    2.6348184794e-02    1.0214838281e+05
    2.6368021965e-02    1.0214499219e+05
    2.6387847960e-02    1.0214550000e+05
    2.6407664642e-02    1.0214599219e+05
    2.6427472010e-02    1.0214647656e+05
    2.6447271928e-02    1.0214696094e+05
    2.6467062533e-02    1.0214731250e+05
    2.6486843824e-02    1.0214775781e+05
    2.6506617665e-02    1.0214816406e+05
    2.6526380330e-02    1.0214841406e+05
    2.6546133682e-02    1.0214343750e+05
    2.6565877721e-02    1.0214884375e+05
    2.6585612446e-02    1.0214913281e+05
    2.6605339721e-02    1.0215132031e+05
    2.6625057682e-02    1.0214442969e+05
    2.6644766331e-02    1.0214455469e+05
    2.6664465666e-02    1.0214450000e+05
    2.6684155688e-02    1.0214959375e+05
    2.6703836396e-02    1.0214955469e+05
    2.6723509654e-02    1.0214941406e+05
    2.6743173599e-02    1.0214396875e+05
    2.6762828231e-02    1.0214339844e+05
    2.6782475412e-02    1.0214263281e+05
    2.6802113280e-02    1.0214160156e+05
    2.6821739972e-02    1.0213840625e+05
    2.6841359213e-02    1.0213946875e+05
    2.6860967278e-02    1.0213880469e+05
    2.6880569756e-02    1.0213838281e+05
    2.6900164783e-02    1.0213803906e+05
    2.6919748634e-02    1.0213590625e+05
    2.6939325035e-02    1.0213803906e+05
    2.6958892122e-02    1.0213852344e+05
    2.6978449896e-02    1.0213875781e+05
    2.6997998357e-02    1.0214146094e+05
    2.7017539367e-02    1.0214446094e+05
    2.7037071064e-02    1.0213996094e+05
    2.7056595311e-02    1.0214088281e+05
    2.7076110244e-02    1.0214428125e+05
    2.7095617726e-02    1.0214772656e+05
    2.7115115896e-02    1.0214862500e+05
    2.7134604752e-02    1.0214952344e+05
    2.7154086158e-02    1.0215240625e+05
    2.7173558250e-02    1.0214875781e+05
    2.7193021029e-02    1.0215163281e+05
    2.7212476358e-02    1.0215716406e+05
    2.7231922373e-02    1.0215396094e+05
    2.7251357213e-02    1.0215194531e+05
    2.7270786464e-02    1.0215706250e+05
    2.7290204540e-02    1.0215777344e+05
    2.7309613302e-02    1.0215668750e+05
    2.7329014614e-02    1.0215750781e+05
    2.7348404750e-02    1.0215821094e+05
    2.7367785573e-02    1.0215866406e+05
    2.7387158945e-02    1.0215911719e+05
    2.7406521142e-02    1.0215968750e+05
    2.7425874025e-02    1.0216007031e+05
    2.7445219457e-02    1.0216028906e+05
    2.7464553714e-02    1.0216027344e+05
    2.7483878657e-02    1.0215746875e+05
    2.7503194287e-02    1.0215483594e+05
    2.7522502467e-02    1.0215465625e+05
    2.7541799471e-02    1.0215414844e+05
    2.7561087161e-02    1.0215353125e+05
    2.7580365539e-02    1.0215255469e+05
    2.7599634603e-02    1.0215182031e+05
    2.7618894354e-02    1.0215137500e+05
    2.7638144791e-02    1.0215115625e+05
    2.7657385916e-02    1.0215386719e+05
    2.7676619589e-02    1.0215127344e+05
    2.7695843950e-02    1.0215103125e+05
    2.7715058997e-02    1.0215092969e+05
    2.7734262869e-02    1.0215605469e+05
    2.7753459290e-02    1.0215081250e+05
    2.7772648260e-02    1.0215049219e+05
    2.7791827917e-02    1.0215002344e+05
    2.7810998261e-02    1.0214922656e+05
    2.7830159292e-02    1.0214863281e+05
    2.7849311009e-02    1.0214847656e+05
    2.7868455276e-02    1.0214860156e+05
    2.7887590230e-02    1.0214903906e+05
    2.7906717733e-02    1.0214907031e+05
    2.7925835922e-02    1.0214928906e+05
    2.7944946662e-02    1.0214947656e+05
    2.7964048088e-02    1.0214965625e+05
    2.7983140200e-02    1.0214965625e+05
    2.8002224863e-02    1.0214922656e+05
    2.8021300212e-02    1.0214635156e+05
    2.8040368110e-02    1.0214355469e+05
    2.8059426695e-02    1.0214687500e+05
    2.8078475967e-02    1.0214628125e+05
    2.8097519651e-02    1.0214584375e+05
    2.8116554022e-02    1.0214130469e+05
    2.8135580942e-02    1.0214064844e+05
    2.8154598549e-02    1.0213985156e+05
    2.8173606843e-02    1.0213372656e+05
    2.8192607686e-02    1.0213294531e+05
    2.8211599216e-02    1.0213493750e+05
    2.8230583295e-02    1.0213700000e+05
    2.8249559924e-02    1.0213632031e+05
    2.8268527240e-02    1.0213558594e+05
    2.8287487105e-02    1.0213221875e+05
    2.8306435794e-02    1.0213135156e+05
    2.8325378895e-02    1.0212796094e+05
    2.8344312683e-02    1.0213658594e+05
    2.8363237157e-02    1.0213615625e+05
    2.8382156044e-02    1.0213562500e+05
    2.8401065618e-02    1.0213514844e+05
    2.8419965878e-02    1.0213489844e+05
    2.8438858688e-02    1.0213482031e+05
    2.8457742184e-02    1.0213485156e+05
    2.8476616368e-02    1.0213496875e+05
    2.8495483100e-02    1.0213527344e+05
    2.8514338657e-02    1.0213564844e+05
    2.8533160686e-02    1.0213610156e+05
    2.8551930562e-02    1.0214178906e+05
    2.8570635244e-02    1.0213714844e+05
    2.8589271009e-02    1.0213766406e+05
    2.8607837856e-02    1.0213803906e+05
    2.8626350686e-02    1.0213830469e+05
    2.8644818813e-02    1.0213872656e+05
    2.8663259000e-02    1.0213921875e+05
    2.8681686148e-02    1.0213980469e+05
    2.8700113297e-02    1.0214046875e+05
    2.8718546033e-02    1.0214391406e+05
    2.8736986220e-02    1.0214222656e+05
    2.8755431995e-02    1.0214318750e+05
    2.8773877770e-02    1.0214397656e+05
    2.8792314231e-02    1.0214478125e+05
    2.8810730204e-02    1.0214575000e+05
    2.8829116374e-02    1.0214672656e+05
    2.8847465292e-02    1.0214340625e+05
    2.8865773231e-02    1.0214350000e+05
    2.8884036466e-02    1.0214356250e+05
    2.8902258724e-02    1.0214556250e+05
    2.8920443729e-02    1.0214796094e+05
    2.8938598931e-02    1.0214852344e+05
    2.8956729919e-02    1.0214915625e+05
    2.8974846005e-02    1.0214587500e+05
    2.8992949054e-02    1.0214674219e+05
    2.9011042789e-02    1.0215177344e+05
    2.9029129073e-02    1.0215283594e+05
    2.9047204182e-02    1.0215381250e+05
    2.9065268114e-02    1.0215453906e+05
    2.9083315283e-02    1.0215499219e+05
    2.9101338238e-02    1.0215321094e+05
    2.9119335115e-02    1.0215327344e+05
    2.9137304053e-02    1.0215339844e+05
    2.9155241325e-02    1.0215552344e+05
    2.9173148796e-02    1.0215385156e+05
    2.9191024601e-02    1.0215237500e+05
    2.9208874330e-02    1.0215512500e+05
    2.9226697981e-02    1.0215811719e+05
    2.9244501144e-02    1.0215921875e+05
    2.9262285680e-02    1.0216034375e+05
    2.9280053452e-02    1.0216141406e+05
    2.9297806323e-02    1.0216232031e+05
    2.9315544292e-02    1.0216099219e+05
    2.9333265498e-02    1.0216171094e+05
    2.9350971803e-02    1.0216250781e+05
    2.9368655756e-02    1.0216539844e+05
    2.9386319220e-02    1.0216621094e+05
    2.9403960332e-02    1.0216693750e+05
    2.9421577230e-02    1.0216561719e+05
    2.9439168051e-02    1.0216439844e+05
    2.9456734657e-02    1.0216527344e+05
    2.9474277049e-02    1.0216642969e+05
    2.9491795227e-02    1.0216762500e+05
    2.9509292915e-02    1.0216874219e+05
    2.9526771978e-02    1.0216965625e+05
    2.9544232413e-02    1.0216527344e+05
    2.9561674222e-02    1.0216566406e+05
    2.9579099268e-02    1.0216612500e+05
    2.9596509412e-02    1.0216652344e+05
    2.9613900930e-02    1.0216696875e+05
    2.9631273821e-02    1.0216314844e+05
    2.9648626223e-02    1.0216300000e+05
    2.9665958136e-02    1.0215739844e+05
    2.9683271423e-02    1.0215242969e+05
    2.9700560495e-02    1.0215125000e+05
    2.9717829078e-02    1.0215377344e+05
    2.9735075310e-02    1.0214546094e+05
    2.9752301052e-02    1.0214114844e+05
    2.9769508168e-02    1.0213925781e+05
    2.9786696658e-02    1.0213074219e+05
    2.9803866521e-02    1.0212583594e+05
    2.9821017757e-02    1.0211918750e+05
    2.9838152230e-02    1.0211378906e+05
    2.9855269939e-02    1.0210837500e+05
    2.9872370884e-02    1.0210527344e+05
    2.9889453202e-02    1.0209996875e+05
    2.9906518757e-02    1.0209663281e+05
    2.9923565686e-02    1.0209097656e+05
    2.9940593988e-02    1.0208209375e+05
    2.9957601801e-02    1.0207828125e+05
    2.9974590987e-02    1.0207471875e+05
    2.9991561547e-02    1.0207636719e+05
    3.0008511618e-02    1.0207314844e+05
    3.0025444925e-02    1.0206981250e+05
    3.0042361468e-02    1.0206611719e+05
    3.0059259385e-02    1.0206267969e+05
    3.0076142401e-02    1.0206346094e+05
    3.0093006790e-02    1.0206594531e+05
    3.0109854415e-02    1.0206816406e+05
    3.0126683414e-02    1.0207646875e+05
    3.0143497512e-02    1.0208147656e+05
    3.0160292983e-02    1.0209132031e+05
    3.0177071691e-02    1.0209662500e+05
    3.0193833634e-02    1.0210349219e+05
    3.0210576952e-02    1.0210985156e+05
    3.0227303505e-02    1.0211778906e+05
    3.0244011432e-02    1.0212514844e+05
    3.0260702595e-02    1.0212899219e+05
    3.0277376994e-02    1.0213566406e+05
    3.0294034630e-02    1.0214246094e+05
    3.0310675502e-02    1.0214878906e+05
    3.0327299610e-02    1.0215525781e+05
    3.0343905091e-02    1.0215978125e+05
    3.0360495672e-02    1.0216418750e+05
    3.0377071351e-02    1.0216850000e+05
    3.0393628404e-02    1.0216852344e+05
    3.0410168692e-02    1.0217257031e+05
    3.0426690355e-02    1.0217621875e+05
    3.0443195254e-02    1.0217464844e+05
    3.0459685251e-02    1.0217794531e+05
    3.0476156622e-02    1.0217700781e+05
    3.0492611229e-02    1.0217459375e+05
    3.0509050936e-02    1.0217278125e+05
    3.0525473878e-02    1.0217202344e+05
    3.0541881919e-02    1.0217075781e+05
    3.0558273196e-02    1.0216771094e+05
    3.0574647710e-02    1.0216335156e+05
    3.0591005459e-02    1.0216387500e+05
    3.0607348308e-02    1.0215987500e+05
    3.0623674393e-02    1.0215977344e+05
    3.0639985576e-02    1.0215434375e+05
    3.0656279996e-02    1.0215147656e+05
    3.0672557652e-02    1.0214600000e+05
    3.0688818544e-02    1.0214200000e+05
    3.0705062672e-02    1.0213828125e+05
    3.0721291900e-02    1.0213432031e+05
    3.0737506226e-02    1.0212958594e+05
    3.0753703788e-02    1.0212487500e+05
    3.0769886449e-02    1.0212791406e+05
    3.0786054209e-02    1.0212606250e+05
    3.0802207068e-02    1.0212836719e+05
    3.0818343163e-02    1.0212671094e+05
    3.0834466219e-02    1.0212103125e+05
    3.0850572512e-02    1.0211927344e+05
    3.0866663903e-02    1.0211739844e+05
    3.0882738531e-02    1.0211281250e+05
    3.0898798257e-02    1.0211078906e+05
    3.0914843082e-02    1.0210885156e+05
    3.0930871144e-02    1.0210949219e+05
    3.0946886167e-02    1.0210514844e+05
    3.0962884426e-02    1.0210325781e+05
    3.0978867784e-02    1.0210546094e+05
    3.0994836241e-02    1.0209702344e+05
    3.1010789797e-02    1.0210036719e+05
    3.1026728451e-02    1.0209868750e+05
    3.1042650342e-02    1.0209693750e+05
    3.1058559194e-02    1.0209253906e+05
    3.1074455008e-02    1.0209055469e+05
    3.1090334058e-02    1.0209115625e+05
    3.1106200069e-02    1.0208928906e+05
    3.1122051179e-02    1.0208750000e+05
    3.1137887388e-02    1.0208577344e+05
    3.1153710559e-02    1.0208822656e+05
    3.1169516966e-02    1.0208664844e+05
    3.1185310334e-02    1.0208306250e+05
    3.1201090664e-02    1.0208142969e+05
    3.1216854230e-02    1.0207987500e+05
    3.1232602894e-02    1.0207828125e+05
    3.1248336658e-02    1.0207887500e+05
    3.1264055520e-02    1.0207766406e+05
    3.1279761344e-02    1.0208192969e+05
    3.1295452267e-02    1.0208146094e+05
    3.1311132014e-02    1.0208115625e+05
    3.1326796860e-02    1.0208114844e+05
    3.1342446804e-02    1.0208143750e+05
    3.1358085573e-02    1.0208164844e+05
    3.1373709440e-02    1.0208196875e+05
    3.1389318407e-02    1.0208264844e+05
    3.1404916197e-02    1.0208767969e+05
    3.1420499086e-02    1.0209418750e+05
    3.1436067075e-02    1.0210008594e+05
    3.1451620162e-02    1.0210241406e+05
    3.1467158347e-02    1.0211025781e+05
    3.1482685357e-02    1.0211352344e+05
    3.1498193741e-02    1.0211699219e+05
    3.1513694674e-02    1.0212478906e+05
    3.1529176980e-02    1.0213146094e+05
    3.1544648111e-02    1.0213817969e+05
    3.1560108066e-02    1.0214246094e+05
    3.1575553119e-02    1.0214690625e+05
    3.1590986997e-02    1.0215131250e+05
    3.1606405973e-02    1.0215588281e+05
    3.1621813774e-02    1.0216272656e+05
    3.1637206674e-02    1.0216974219e+05
    3.1652588397e-02    1.0217485156e+05
    3.1667951494e-02    1.0218000781e+05
    3.1683307141e-02    1.0218105469e+05
    3.1698647887e-02    1.0218614844e+05
    3.1713977456e-02    1.0219108594e+05
    3.1729292125e-02    1.0219571094e+05
    3.1744595617e-02    1.0220010156e+05
    3.1759884208e-02    1.0220421094e+05
    3.1775161624e-02    1.0220283594e+05
    3.1790427864e-02    1.0220414844e+05
    3.1805675477e-02    1.0220516406e+05
    3.1820915639e-02    1.0220289844e+05
    3.1836140901e-02    1.0220550781e+05
    3.1851354986e-02    1.0220790625e+05
    3.1866557896e-02    1.0221027344e+05
    3.1881745905e-02    1.0221280469e+05
    3.1896922737e-02    1.0221538281e+05
    3.1912088394e-02    1.0221785156e+05
    3.1927239150e-02    1.0222003906e+05
    3.1942378730e-02    1.0222208594e+05
    3.1957507133e-02    1.0222391406e+05
    3.1972620636e-02    1.0222114844e+05
    3.1987726688e-02    1.0221683594e+05
    3.2002814114e-02    1.0221511719e+05
    3.2017890364e-02    1.0221302344e+05
    3.2032959163e-02    1.0220778125e+05
    3.2048013061e-02    1.0220747656e+05
    3.2063052058e-02    1.0220717969e+05
    3.2078083605e-02    1.0221202344e+05
    3.2093103975e-02    1.0220666406e+05
    3.2108109444e-02    1.0220640625e+05
    3.2123107463e-02    1.0220607031e+05
    3.2138090581e-02    1.0220561719e+05
    3.2153062522e-02    1.0220511719e+05
    3.2168023288e-02    1.0220241406e+05
    3.2182972878e-02    1.0219964844e+05
    3.2197911292e-02    1.0219871094e+05
    3.2212834805e-02    1.0219778125e+05
    3.2227750868e-02    1.0219908594e+05
    3.2242652029e-02    1.0220060156e+05
    3.2257542014e-02    1.0220022656e+05
    3.2272424549e-02    1.0219783594e+05
    3.2287292182e-02    1.0219535156e+05
    3.2302148640e-02    1.0219471875e+05
    3.2316997647e-02    1.0219400000e+05
    3.2331831753e-02    1.0219327344e+05
    3.2346658409e-02    1.0219452344e+05
    3.2361470163e-02    1.0219134375e+05
    3.2376270741e-02    1.0219012500e+05
    3.2391063869e-02    1.0218358594e+05
    3.2405842096e-02    1.0218216406e+05
    3.2420612872e-02    1.0218083594e+05
    3.2435368747e-02    1.0218218750e+05
    3.2450113446e-02    1.0218363281e+05
    3.2464850694e-02    1.0218258594e+05
    3.2479573041e-02    1.0217653906e+05
    3.2494287938e-02    1.0217571094e+05
    3.2508991659e-02    1.0217493750e+05
    3.2523684204e-02    1.0217650781e+05
    3.2538365573e-02    1.0217274219e+05
    3.2553035766e-02    1.0217133594e+05
    3.2567698509e-02    1.0216971094e+05
    3.2582346350e-02    1.0216800000e+05
    3.2596986741e-02    1.0216633594e+05
    3.2611619681e-02    1.0216461719e+05
    3.2626237720e-02    1.0216291406e+05
    3.2640848309e-02    1.0216106250e+05
    3.2655447721e-02    1.0215702344e+05
    3.2670035958e-02    1.0215285156e+05
    3.2684613019e-02    1.0215066406e+05
    3.2699178904e-02    1.0214846094e+05
    3.2713737339e-02    1.0214628906e+05
    3.2728284597e-02    1.0214411719e+05
    3.2742820680e-02    1.0214406250e+05
    3.2757349312e-02    1.0214216406e+05
    3.2771866769e-02    1.0214028906e+05
    3.2786373049e-02    1.0213628125e+05
    3.2800871879e-02    1.0213425781e+05
    3.2815355808e-02    1.0212721094e+05
    3.2829832286e-02    1.0212540625e+05
    3.2844301313e-02    1.0212885156e+05
    3.2858755440e-02    1.0212741406e+05
    3.2873202115e-02    1.0212606250e+05
    3.2887637615e-02    1.0212464844e+05
    3.2902065665e-02    1.0212305469e+05
    3.2916482538e-02    1.0212137500e+05
    3.2930891961e-02    1.0211950000e+05
    3.2945290208e-02    1.0211740625e+05
    3.2959677279e-02    1.0211016406e+05
    3.2974056900e-02    1.0210793750e+05
    3.2988425344e-02    1.0210846094e+05
    3.3002786338e-02    1.0210669531e+05
    3.3017136157e-02    1.0210767969e+05
    3.3031478524e-02    1.0210627344e+05
    3.3045809716e-02    1.0210486719e+05
    3.3060129732e-02    1.0210353906e+05
    3.3074442297e-02    1.0210227344e+05
    3.3088747412e-02    1.0210103906e+05
    3.3103041351e-02    1.0209983594e+05
    3.3117324114e-02    1.0209872656e+05
    3.3131599426e-02    1.0209777344e+05
    3.3145863563e-02    1.0209696094e+05
    3.3160120249e-02    1.0209642969e+05
    3.3174365759e-02    1.0209609375e+05
    3.3188603818e-02    1.0209808594e+05
    3.3202830702e-02    1.0210028125e+05
    3.3217050135e-02    1.0210564844e+05
    3.3231258392e-02    1.0210597656e+05
    3.3245459199e-02    1.0210382031e+05
    3.3259648830e-02    1.0210160156e+05
    3.3273831010e-02    1.0210187500e+05
    3.3288005739e-02    1.0210203906e+05
    3.3302169293e-02    1.0210218750e+05
    3.3316325396e-02    1.0210238281e+05
    3.3330474049e-02    1.0210527344e+05
    3.3344611526e-02    1.0210834375e+05
    3.3358741552e-02    1.0210908594e+05
    3.3372864127e-02    1.0210996094e+05
    3.3386975527e-02    1.0211111719e+05
    3.3401079476e-02    1.0211246094e+05
    3.3415172249e-02    1.0211382031e+05
    3.3429257572e-02    1.0211932031e+05
    3.3443335444e-02    1.0212085156e+05
    3.3457405865e-02    1.0212239844e+05
    3.3471468836e-02    1.0212186719e+05
    3.3485524356e-02    1.0212340625e+05
    3.3499568701e-02    1.0212485156e+05
    3.3513605595e-02    1.0212828906e+05
    3.3527631313e-02    1.0212975000e+05
    3.3541653305e-02    1.0213109375e+05
    3.3555664122e-02    1.0213228906e+05
    3.3569667488e-02    1.0213139844e+05
    3.3583663404e-02    1.0213246094e+05
    3.3597648144e-02    1.0213561719e+05
    3.3611625433e-02    1.0213663281e+05
    3.3625595272e-02    1.0213357031e+05
    3.3639557660e-02    1.0213666406e+05
    3.3653512597e-02    1.0213771094e+05
    3.3667460084e-02    1.0213877344e+05
    3.3681396395e-02    1.0213774219e+05
    3.3695328981e-02    1.0213867969e+05
    3.3709254116e-02    1.0213958594e+05
    3.3723168075e-02    1.0214042969e+05
    3.3737078309e-02    1.0213864844e+05
    3.3750977367e-02    1.0213671875e+05
    3.3764872700e-02    1.0213715625e+05
    3.3778760582e-02    1.0213746875e+05
    3.3792637289e-02    1.0213764844e+05
    3.3806510270e-02    1.0213780469e+05
    3.3820372075e-02    1.0213800781e+05
    3.3834230155e-02    1.0213810156e+05
    3.3848077059e-02    1.0213821094e+05
    3.3861916512e-02    1.0213834375e+05
    3.3875752240e-02    1.0213853125e+05
    3.3889576793e-02    1.0213878125e+05
    3.3903393894e-02    1.0213905469e+05
    3.3917203546e-02    1.0213916406e+05
    3.3931009471e-02    1.0213714844e+05
    3.3944804221e-02    1.0213503906e+05
    3.3958595246e-02    1.0213499219e+05
    3.3972378820e-02    1.0213503906e+05
    3.3986151218e-02    1.0213503906e+05
    3.3999919891e-02    1.0213511719e+05
    3.4013681114e-02    1.0213528125e+05
    3.4027434886e-02    1.0213980469e+05
    3.4041177481e-02    1.0214041406e+05
    3.4054916352e-02    1.0214125781e+05
    3.4068647772e-02    1.0214228125e+05
    3.4082375467e-02    1.0214347656e+05
    3.4096091986e-02    1.0214471094e+05
    3.4109804779e-02    1.0214588281e+05
    3.4123510122e-02    1.0214709375e+05
    3.4137208015e-02    1.0214833594e+05
    3.4150898457e-02    1.0215471094e+05
    3.4164581448e-02    1.0215600781e+05
    3.4178260714e-02    1.0215746094e+05
    3.4191932529e-02    1.0215888281e+05
    3.4205596894e-02    1.0216028906e+05
    3.4219253808e-02    1.0216165625e+05
    3.4232903272e-02    1.0216044531e+05
    3.4246545285e-02    1.0216171094e+05
    3.4260183573e-02    1.0216302344e+05
    3.4273810685e-02    1.0216677344e+05
    3.4287434071e-02    1.0216544531e+05
    3.4301050007e-02    1.0216664844e+05
    3.4314658493e-02    1.0216778125e+05
    3.4328263253e-02    1.0217136719e+05
    3.4341860563e-02    1.0216983594e+05
    3.4355450422e-02    1.0216827344e+05
    3.4369036555e-02    1.0217166406e+05
    3.4382611513e-02    1.0217000781e+05
    3.4396182746e-02    1.0217078906e+05
    3.4409742802e-02    1.0217137500e+05
    3.4423299134e-02    1.0217172656e+05
    3.4436848015e-02    1.0217188281e+05
    3.4450393170e-02    1.0217177344e+05
    3.4463927150e-02    1.0217143750e+05
    3.4477461129e-02    1.0217074219e+05
    3.4490987659e-02    1.0216563281e+05
    3.4504506737e-02    1.0216171094e+05
    3.4518022090e-02    1.0215753906e+05
    3.4531529993e-02    1.0215574219e+05
    3.4545030445e-02    1.0215385156e+05
    3.4558523446e-02    1.0215192969e+05
    3.4572008997e-02    1.0214988281e+05
    3.4585487098e-02    1.0214763281e+05
    3.4598957747e-02    1.0214310156e+05
    3.4612424672e-02    1.0213828125e+05
    3.4625884145e-02    1.0213278906e+05
    3.4639336169e-02    1.0212700781e+05
    3.4652780741e-02    1.0212358594e+05
    3.4666225314e-02    1.0212002344e+05
    3.4679658711e-02    1.0211630469e+05
    3.4693088382e-02    1.0211246094e+05
    3.4706510603e-02    1.0210861719e+05
    3.4719929099e-02    1.0210468750e+05
    3.4733340144e-02    1.0210078125e+05
    3.4746743739e-02    1.0209689844e+05
    3.4760143608e-02    1.0209091406e+05
    3.4773536026e-02    1.0208494531e+05
    3.4786924720e-02    1.0208105469e+05
    3.4800305963e-02    1.0207703906e+05
    3.4813679755e-02    1.0207313281e+05
    3.4827046096e-02    1.0206934375e+05
    3.4840408713e-02    1.0206564844e+05
    3.4853763878e-02    1.0206433594e+05
    3.4867111593e-02    1.0206337500e+05
    3.4880455583e-02    1.0206071875e+05
    3.4893795848e-02    1.0205831250e+05
    3.4907124937e-02    1.0205621094e+05
    3.4920454025e-02    1.0205427344e+05
    3.4933775663e-02    1.0205512500e+05
    3.4947093576e-02    1.0205637500e+05
    3.4960404038e-02    1.0205550000e+05
    3.4973710775e-02    1.0205502344e+05
    3.4987010062e-02    1.0205500000e+05
endcurve
