Curveplot
LS-DYNA keyword deck by LS-PrePost                          
Time
Pressure
Defined Connection
Pressure @ 21 #pts=1745
* Minval=     9.8928562500e+04 at time=         0.0130868377
* Maxval=     1.7085728125e+05 at time=         0.0061544459
    0.0000000000e+00    9.9998125000e+04
    3.3812357287e-05    9.9998125000e+04
    6.1326652940e-05    9.9998335938e+04
    8.9102875791e-05    9.9997843750e+04
    1.1682785407e-04    9.9999132812e+04
    1.4461828687e-04    9.9998867188e+04
    1.7236733402e-04    9.9999367188e+04
    2.0016246708e-04    1.0000908594e+05
    2.2795486439e-04    1.0000019531e+05
    2.5574557367e-04    1.0000044531e+05
    2.8353667585e-04    1.0000018750e+05
    3.1133697485e-04    9.9990757812e+04
    3.3912662184e-04    9.9999726562e+04
    3.6691734567e-04    9.9999414062e+04
    3.9470891352e-04    1.0000044531e+05
    4.2249175021e-04    1.0001013281e+05
    4.5027161832e-04    1.0000253125e+05
    4.7804549104e-04    9.9992585938e+04
    5.0581363030e-04    1.0000103125e+05
    5.3357944125e-04    1.0000368750e+05
    5.6134146871e-04    1.0000059375e+05
    5.8909942163e-04    1.0000121875e+05
    6.1685312539e-04    9.9992070312e+04
    6.4460188150e-04    9.9996648438e+04
    6.7234638846e-04    1.0000096094e+05
    7.0008635521e-04    1.0001078906e+05
    7.2782178177e-04    1.0000214844e+05
    7.5555208605e-04    1.0000183594e+05
    7.8327720985e-04    9.9997023438e+04
    8.1099680392e-04    9.9991976562e+04
    8.3871174138e-04    9.9998523438e+04
    8.6642213864e-04    1.0000185156e+05
    8.9412782108e-04    1.0000214844e+05
    9.2182843946e-04    1.0000246875e+05
    9.4952445943e-04    1.0000196875e+05
    9.7721535712e-04    1.0000165625e+05
    1.0049008997e-03    9.9991968750e+04
    1.0325826006e-03    9.9991601562e+04
    1.0602590628e-03    1.0000122656e+05
    1.0879321489e-03    1.0001243750e+05
    1.1155996472e-03    1.0001258594e+05
    1.1432634201e-03    1.0000346875e+05
    1.1709230021e-03    9.9992726562e+04
    1.1985785095e-03    9.9985039062e+04
    1.2262313394e-03    9.9996226562e+04
    1.2538790470e-03    1.0001077344e+05
    1.2815232622e-03    1.0001210156e+05
    1.3091630535e-03    1.0000389844e+05
    1.3368004002e-03    9.9995445312e+04
    1.3644339051e-03    9.9999625000e+04
    1.3920635683e-03    1.0001572656e+05
    1.4196902048e-03    1.0005202344e+05
    1.4473132323e-03    1.0011302344e+05
    1.4749332331e-03    1.0019878125e+05
    1.5025498578e-03    1.0032757031e+05
    1.5301633393e-03    1.0051386719e+05
    1.5577742597e-03    1.0077386719e+05
    1.5853822697e-03    1.0109675781e+05
    1.6129877185e-03    1.0146762500e+05
    1.6405890929e-03    1.0186546875e+05
    1.6681876732e-03    1.0224977344e+05
    1.6957829939e-03    1.0259275781e+05
    1.7233766848e-03    1.0287265625e+05
    1.7509678146e-03    1.0305124219e+05
    1.7785291420e-03    1.0313777344e+05
    1.8060547300e-03    1.0313652344e+05
    1.8335470231e-03    1.0305364844e+05
    1.8610082334e-03    1.0292237500e+05
    1.8884401070e-03    1.0274922656e+05
    1.9158447394e-03    1.0257553125e+05
    1.9432241097e-03    1.0241658594e+05
    1.9705800805e-03    1.0229790625e+05
    1.9979148638e-03    1.0222328906e+05
    2.0252298564e-03    1.0219471875e+05
    2.0525271539e-03    1.0221506250e+05
    2.0798076876e-03    1.0227053906e+05
    2.1070730872e-03    1.0234259375e+05
    2.1343247499e-03    1.0242050000e+05
    2.1615643054e-03    1.0247908594e+05
    2.1887931507e-03    1.0252166406e+05
    2.2160108201e-03    1.0254305469e+05
    2.2432196420e-03    1.0254089844e+05
    2.2704207804e-03    1.0251777344e+05
    2.2976147011e-03    1.0248485156e+05
    2.3248014040e-03    1.0244900000e+05
    2.3519827519e-03    1.0241103125e+05
    2.3791582789e-03    1.0239100781e+05
    2.4063293822e-03    1.0238477344e+05
    2.4334960617e-03    1.0238753906e+05
    2.4606597144e-03    1.0239937500e+05
    2.4878205732e-03    1.0241147656e+05
    2.5149781723e-03    1.0242389844e+05
    2.5421329774e-03    1.0243717969e+05
    2.5692859199e-03    1.0244319531e+05
    2.5964374654e-03    1.0244712500e+05
    2.6235871483e-03    1.0244758594e+05
    2.6507352013e-03    1.0243708594e+05
    2.6778825559e-03    1.0242483594e+05
    2.7050296776e-03    1.0242164844e+05
    2.7321761008e-03    1.0242021094e+05
    2.7593218256e-03    1.0242041406e+05
    2.7864677832e-03    1.0242253906e+05
    2.8136142064e-03    1.0242478906e+05
    2.8407603968e-03    1.0243196094e+05
    2.8679079842e-03    1.0244184375e+05
    2.8950548731e-03    1.0246197656e+05
    2.9222022276e-03    1.0248628906e+05
    2.9493502807e-03    1.0252014844e+05
    2.9764990322e-03    1.0256933594e+05
    3.0036487151e-03    1.0263565625e+05
    3.0307997949e-03    1.0272394531e+05
    3.0579508748e-03    1.0282039844e+05
    3.0851035845e-03    1.0291561719e+05
    3.1122572254e-03    1.0302608594e+05
    3.1394117977e-03    1.0311489844e+05
    3.1665677670e-03    1.0320353125e+05
    3.1937246677e-03    1.0326739844e+05
    3.2208829653e-03    1.0330164844e+05
    3.2480424270e-03    1.0330435156e+05
    3.2752046827e-03    1.0328709375e+05
    3.2952371985e-03    1.0325469531e+05
    3.3145032357e-03    1.0322311719e+05
    3.3336398192e-03    1.0318966406e+05
    3.3528339118e-03    1.0314809375e+05
    3.3720366191e-03    1.0310978125e+05
    3.3912549261e-03    1.0306566406e+05
    3.4104890656e-03    1.0301596094e+05
    3.4297339153e-03    1.0297066406e+05
    3.4486323129e-03    1.0292537500e+05
    3.4671388566e-03    1.0287671094e+05
    3.4854323603e-03    1.0282907031e+05
    3.5036695190e-03    1.0276878906e+05
    3.5219141282e-03    1.0270466406e+05
    3.5401545465e-03    1.0263633594e+05
    3.5583588760e-03    1.0256413281e+05
    3.5765271168e-03    1.0249787500e+05
    3.5946895368e-03    1.0242918750e+05
    3.6139658187e-03    1.0237296094e+05
    3.6330535077e-03    1.0232513281e+05
    3.6521453876e-03    1.0228274219e+05
    3.6699753255e-03    1.0225114844e+05
    3.6875614896e-03    1.0222952344e+05
    3.7050142419e-03    1.0220811719e+05
    3.7224807311e-03    1.0219125000e+05
    3.7400643341e-03    1.0217846094e+05
    3.7577797193e-03    1.0216841406e+05
    3.7755726371e-03    1.0215571094e+05
    3.7933769636e-03    1.0214462500e+05
    3.8111612666e-03    1.0213991406e+05
    3.8289318327e-03    1.0213635156e+05
    3.8467168342e-03    1.0213037500e+05
    3.8645383902e-03    1.0212625781e+05
    3.8824023213e-03    1.0211749219e+05
    3.9002960548e-03    1.0209989844e+05
    3.9182156324e-03    1.0208249219e+05
    3.9361710660e-03    1.0206596875e+05
    3.9541716687e-03    1.0204763281e+05
    3.9733103476e-03    1.0202991406e+05
    3.9924201556e-03    1.0201203906e+05
    4.0104058571e-03    1.0200400000e+05
    4.0284004062e-03    1.0199765625e+05
    4.0464363992e-03    1.0198252344e+05
    4.0656095371e-03    1.0197800000e+05
    4.0847789496e-03    1.0196947656e+05
    4.1039343923e-03    1.0196100781e+05
    4.1219722480e-03    1.0195158594e+05
    4.1400394402e-03    1.0194675000e+05
    4.1591953486e-03    1.0193817969e+05
    4.1784178466e-03    1.0193428906e+05
    4.1976389475e-03    1.0192574219e+05
    4.2168586515e-03    1.0192211719e+05
    4.2360713705e-03    1.0191147656e+05
    4.2552771047e-03    1.0190050781e+05
    4.2744791135e-03    1.0188477344e+05
    4.2936825193e-03    1.0186835156e+05
    4.3128933758e-03    1.0186556250e+05
    4.3321144767e-03    1.0185300781e+05
    4.3513495475e-03    1.0184227344e+05
    4.3705995195e-03    1.0183528125e+05
    4.3898657896e-03    1.0181744531e+05
    4.4091497548e-03    1.0179643750e+05
    4.4284537435e-03    1.0177252344e+05
    4.4477786869e-03    1.0174312500e+05
    4.4671236537e-03    1.0170783594e+05
    4.4864914380e-03    1.0166803125e+05
    4.5058806427e-03    1.0162506250e+05
    4.5252908021e-03    1.0157371094e+05
    4.5447219163e-03    1.0152324219e+05
    4.5641721226e-03    1.0146475000e+05
    4.5836409554e-03    1.0140027344e+05
    4.6031279489e-03    1.0133625000e+05
    4.6226321720e-03    1.0127077344e+05
    4.6421540901e-03    1.0121115625e+05
    4.6616927721e-03    1.0115138281e+05
    4.6812482178e-03    1.0110603125e+05
    4.7008208930e-03    1.0107277344e+05
    4.7204112634e-03    1.0105507031e+05
    4.7400193289e-03    1.0105260156e+05
    4.7596455552e-03    1.0106965625e+05
    4.7792894766e-03    1.0109764844e+05
    4.7989510931e-03    1.0114477344e+05
    4.8186304048e-03    1.0120884375e+05
    4.8383255489e-03    1.0128471094e+05
    4.8580355942e-03    1.0136602344e+05
    4.8777610064e-03    1.0143934375e+05
    4.8975008540e-03    1.0150913281e+05
    4.9172551371e-03    1.0155824219e+05
    4.9370229244e-03    1.0159511719e+05
    4.9568060786e-03    1.0160552344e+05
    4.9766036682e-03    1.0159364844e+05
    4.9964170903e-03    1.0156285156e+05
    5.0162458792e-03    1.0150281250e+05
    5.0360900350e-03    1.0141918750e+05
    5.0559476949e-03    1.0131210156e+05
    5.0758207217e-03    1.0118532031e+05
    5.0957072526e-03    1.0104353906e+05
    5.1156077534e-03    1.0088955469e+05
    5.1355226897e-03    1.0073057031e+05
    5.1554525271e-03    1.0057452344e+05
    5.1753963344e-03    1.0041963281e+05
    5.1953555085e-03    1.0027881250e+05
    5.2153295837e-03    1.0014758594e+05
    5.2353194915e-03    1.0004307031e+05
    5.2553247660e-03    9.9957312500e+04
    5.2753463387e-03    9.9892687500e+04
    5.2953832783e-03    9.9849875000e+04
    5.3154369816e-03    9.9829804688e+04
    5.3355065174e-03    9.9825976562e+04
    5.3555918857e-03    9.9845406250e+04
    5.3756926209e-03    9.9877335938e+04
    5.3958082572e-03    9.9921656250e+04
    5.4159392603e-03    9.9973039062e+04
    5.4360851645e-03    1.0003053906e+05
    5.4562464356e-03    1.0008466406e+05
    5.4764230736e-03    1.0013638281e+05
    5.4966160096e-03    1.0018128125e+05
    5.5168238468e-03    1.0021791406e+05
    5.5370470509e-03    1.0024647656e+05
    5.5572865531e-03    1.0026247656e+05
    5.5775423534e-03    1.0026433594e+05
    5.5978130549e-03    1.0026143750e+05
    5.6181000546e-03    1.0025318750e+05
    5.6384028867e-03    1.0023542969e+05
    5.6587206200e-03    1.0020858594e+05
    5.6790532544e-03    1.0018328906e+05
    5.6994007900e-03    1.0015033594e+05
    5.7197632268e-03    1.0011328906e+05
    5.7401410304e-03    1.0007928125e+05
    5.7605337352e-03    1.0004225000e+05
    5.7809422724e-03    1.0001116406e+05
    5.8013652451e-03    9.9990937500e+04
    5.8218040504e-03    9.9981226562e+04
    5.8422577567e-03    9.9985875000e+04
    5.8627268299e-03    1.0000391406e+05
    5.8832112700e-03    1.0007768750e+05
    5.9037101455e-03    1.0024250781e+05
    5.9242248535e-03    1.0062172656e+05
    5.9447535314e-03    1.0145935156e+05
    5.9641525149e-03    1.0326977344e+05
    5.9830932878e-03    1.0662314844e+05
    6.0020405799e-03    1.1218228906e+05
    6.0210367665e-03    1.2039613281e+05
    6.0400799848e-03    1.3099931250e+05
    6.0591096990e-03    1.4274953125e+05
    6.0781282373e-03    1.5377596875e+05
    6.0972142965e-03    1.6243571875e+05
    6.1162756756e-03    1.6796679688e+05
    6.1353649944e-03    1.7052346875e+05
    6.1544459313e-03    1.7085728125e+05
    6.1734300107e-03    1.6992028125e+05
    6.1924448237e-03    1.6847567188e+05
    6.2115197070e-03    1.6703495312e+05
    6.2306127511e-03    1.6573668750e+05
    6.2497169711e-03    1.6450339062e+05
    6.2688281760e-03    1.6319892188e+05
    6.2879407778e-03    1.6172414062e+05
    6.3070552424e-03    1.6008132812e+05
    6.3261794858e-03    1.5830900000e+05
    6.3453060575e-03    1.5647900000e+05
    6.3644465990e-03    1.5466037500e+05
    6.3835908659e-03    1.5289760938e+05
    6.4027444459e-03    1.5122676562e+05
    6.4219115302e-03    1.4964095312e+05
    6.4410855994e-03    1.4812932812e+05
    6.4602680504e-03    1.4666462500e+05
    6.4794607460e-03    1.4522937500e+05
    6.4986641519e-03    1.4382146875e+05
    6.5178787336e-03    1.4243384375e+05
    6.5371058881e-03    1.4109379688e+05
    6.5563363023e-03    1.3981503125e+05
    6.5755699761e-03    1.3860259375e+05
    6.5948092379e-03    1.3747409375e+05
    6.6140629351e-03    1.3641012500e+05
    6.6333152354e-03    1.3540812500e+05
    6.6525745206e-03    1.3446507812e+05
    6.6718445159e-03    1.3357039062e+05
    6.6911154427e-03    1.3271715625e+05
    6.7104012705e-03    1.3191681250e+05
    6.7296870984e-03    1.3115351562e+05
    6.7489854991e-03    1.3043008594e+05
    6.7682852969e-03    1.2974103906e+05
    6.7875892855e-03    1.2907527344e+05
    6.8069072440e-03    1.2844539844e+05
    6.8262196146e-03    1.2782813281e+05
    6.8455408327e-03    1.2722408594e+05
    6.8648783490e-03    1.2664944531e+05
    6.8842126057e-03    1.2608156250e+05
    6.9035501219e-03    1.2553311719e+05
    6.9228983484e-03    1.2500428125e+05
    6.9422605447e-03    1.2451137500e+05
    6.9616222754e-03    1.2404118750e+05
    6.9809844717e-03    1.2360489844e+05
    7.0003494620e-03    1.2320025781e+05
    7.0197195746e-03    1.2282121875e+05
    7.0390999317e-03    1.2246755469e+05
    7.0584909990e-03    1.2213697656e+05
    7.0778946392e-03    1.2182755469e+05
    7.0973108523e-03    1.2153050000e+05
    7.1167377755e-03    1.2125302344e+05
    7.1361698210e-03    1.2098483594e+05
    7.1556069888e-03    1.2072788281e+05
    7.1750483476e-03    1.2048071094e+05
    7.1944966912e-03    1.2024050000e+05
    7.2139529511e-03    1.2000396875e+05
    7.2334166616e-03    1.1977222656e+05
    7.2528840974e-03    1.1954167969e+05
    7.2723543271e-03    1.1931133594e+05
    7.2918278165e-03    1.1908583594e+05
    7.3113050312e-03    1.1887028125e+05
    7.3307845742e-03    1.1865410156e+05
    7.3502692394e-03    1.1845330469e+05
    7.3697618209e-03    1.1825139844e+05
    7.3892641813e-03    1.1805368750e+05
    7.4087800458e-03    1.1786714844e+05
    7.4282912537e-03    1.1767966406e+05
    7.4477996677e-03    1.1750344531e+05
    7.4673094787e-03    1.1733306250e+05
    7.4868267402e-03    1.1716557031e+05
    7.5063589029e-03    1.1700896094e+05
    7.5258887373e-03    1.1684927344e+05
    7.5454111211e-03    1.1670233594e+05
    7.5649353676e-03    1.1655108594e+05
    7.5844703242e-03    1.1640718750e+05
    7.6040057465e-03    1.1626833594e+05
    7.6235276647e-03    1.1613962500e+05
    7.6430505142e-03    1.1601689844e+05
    7.6625877991e-03    1.1589296094e+05
    7.6821087860e-03    1.1578119531e+05
    7.7016241848e-03    1.1567286719e+05
    7.7211544849e-03    1.1556739844e+05
    7.7406810597e-03    1.1545785156e+05
    7.7602043748e-03    1.1535160156e+05
    7.7797495760e-03    1.1524100000e+05
    7.7992938459e-03    1.1513216406e+05
    7.8188432381e-03    1.1501578906e+05
    7.8384252265e-03    1.1489377344e+05
    7.8580006957e-03    1.1477166406e+05
    7.8775910661e-03    1.1464902344e+05
    7.8972103074e-03    1.1452691406e+05
    7.9168286175e-03    1.1440174219e+05
    7.9364804551e-03    1.1427575781e+05
    7.9561360180e-03    1.1415200781e+05
    7.9758102074e-03    1.1402263281e+05
    7.9955114052e-03    1.1389450781e+05
    8.0152126029e-03    1.1376633594e+05
    8.0349491909e-03    1.1364393750e+05
    8.0546662211e-03    1.1352321094e+05
    8.0743944272e-03    1.1341217969e+05
    8.0941170454e-03    1.1330796094e+05
    8.1138620153e-03    1.1320296875e+05
    8.1336386502e-03    1.1310797656e+05
    8.1534720957e-03    1.1301108594e+05
    8.1733558327e-03    1.1291608594e+05
    8.1932730973e-03    1.1282756250e+05
    8.2132071257e-03    1.1273084375e+05
    8.2330890000e-03    1.1262953906e+05
    8.2529615611e-03    1.1252362500e+05
    8.2727763802e-03    1.1241677344e+05
    8.2926023751e-03    1.1230207031e+05
    8.3124246448e-03    1.1216902344e+05
    8.3322748542e-03    1.1202577344e+05
    8.3521194756e-03    1.1187193750e+05
    8.3719678223e-03    1.1169564844e+05
    8.3917891607e-03    1.1151291406e+05
    8.4116021171e-03    1.1131846094e+05
    8.4314141423e-03    1.1110380469e+05
    8.4512168542e-03    1.1088939844e+05
    8.4710381925e-03    1.1066421094e+05
    8.4908353165e-03    1.1043192969e+05
    8.5106678307e-03    1.1019977344e+05
    8.5304882377e-03    1.0995618750e+05
    8.5503393784e-03    1.0971321094e+05
    8.5699046031e-03    1.0947216406e+05
    8.5892248899e-03    1.0923452344e+05
    8.6083402857e-03    1.0900625781e+05
    8.6272666231e-03    1.0877847656e+05
    8.6460309103e-03    1.0856250781e+05
    8.6646731943e-03    1.0835333594e+05
    8.6832325906e-03    1.0814925000e+05
    8.7017398328e-03    1.0795089844e+05
    8.7202098221e-03    1.0775749219e+05
    8.7386453524e-03    1.0757507031e+05
    8.7570473552e-03    1.0740208594e+05
    8.7753897533e-03    1.0724160156e+05
    8.7936492637e-03    1.0709516406e+05
    8.8118780404e-03    1.0696934375e+05
    8.8300397620e-03    1.0685516406e+05
    8.8481390849e-03    1.0675642969e+05
    8.8662039489e-03    1.0668027344e+05
    8.8842641562e-03    1.0660752344e+05
    8.9023411274e-03    1.0655377344e+05
    8.9204348624e-03    1.0651057031e+05
    8.9385388419e-03    1.0648096875e+05
    8.9566456154e-03    1.0646460156e+05
    8.9747514576e-03    1.0645253125e+05
    8.9928600937e-03    1.0645930469e+05
    9.0109808370e-03    1.0646671875e+05
    9.0291155502e-03    1.0648475781e+05
    9.0472688898e-03    1.0651315625e+05
    9.0654399246e-03    1.0654108594e+05
    9.0836230665e-03    1.0656985156e+05
    9.1018192470e-03    1.0660175781e+05
    9.1200266033e-03    1.0663260156e+05
    9.1382460669e-03    1.0665915625e+05
    9.1564757749e-03    1.0668055469e+05
    9.1747231781e-03    1.0669524219e+05
    9.1929892078e-03    1.0670531250e+05
    9.2112747952e-03    1.0670946094e+05
    9.2295790091e-03    1.0670728906e+05
    9.2479009181e-03    1.0669916406e+05
    9.2662386596e-03    1.0668828125e+05
    9.2845931649e-03    1.0666730469e+05
    9.3029672280e-03    1.0663834375e+05
    9.3213599175e-03    1.0661060156e+05
    9.3397712335e-03    1.0657303906e+05
    9.3582011759e-03    1.0652224219e+05
    9.3766497448e-03    1.0646737500e+05
    9.3951150775e-03    1.0640539844e+05
    9.4135999680e-03    1.0633981250e+05
    9.4321016222e-03    1.0627327344e+05
    9.4506228343e-03    1.0620558594e+05
    9.4691645354e-03    1.0614064844e+05
    9.4877239317e-03    1.0607718750e+05
    9.5063010231e-03    1.0602003906e+05
    9.5248948783e-03    1.0596235156e+05
    9.5435054973e-03    1.0591803906e+05
    9.5621328801e-03    1.0587016406e+05
    9.5807760954e-03    1.0582875000e+05
    9.5994332805e-03    1.0579960156e+05
    9.6181081608e-03    1.0576434375e+05
    9.6367979422e-03    1.0573662500e+05
    9.6555035561e-03    1.0571171094e+05
    9.6742231399e-03    1.0569085156e+05
    9.6929576248e-03    1.0566900000e+05
    9.7117051482e-03    1.0564525000e+05
    9.7304685041e-03    1.0562547656e+05
    9.7492448986e-03    1.0560158594e+05
    9.7680361941e-03    1.0557800000e+05
    9.7868405282e-03    1.0554539844e+05
    9.8056588322e-03    1.0551625000e+05
    9.8244920373e-03    1.0548440625e+05
    9.8433364183e-03    1.0544711719e+05
    9.8621929064e-03    1.0540650000e+05
    9.8810633644e-03    1.0536591406e+05
    9.8999459296e-03    1.0532484375e+05
    9.9188406020e-03    1.0529371875e+05
    9.9377483130e-03    1.0526287500e+05
    9.9566690624e-03    1.0523228906e+05
    9.9756028503e-03    1.0520102344e+05
    9.9945487455e-03    1.0516535156e+05
    1.0013507679e-02    1.0513339844e+05
    1.0032479651e-02    1.0510019531e+05
    1.0051463731e-02    1.0505665625e+05
    1.0070459917e-02    1.0501221094e+05
    1.0089469142e-02    1.0496536719e+05
    1.0108492337e-02    1.0491702344e+05
    1.0127528571e-02    1.0486646875e+05
    1.0146577843e-02    1.0480477344e+05
    1.0165639222e-02    1.0473589844e+05
    1.0184712708e-02    1.0466052344e+05
    1.0203798302e-02    1.0457703906e+05
    1.0222896002e-02    1.0449265625e+05
    1.0242006741e-02    1.0439458594e+05
    1.0261129588e-02    1.0429293750e+05
    1.0280264542e-02    1.0419092969e+05
    1.0299413465e-02    1.0409075781e+05
    1.0318575427e-02    1.0399041406e+05
    1.0337748565e-02    1.0388688281e+05
    1.0356934741e-02    1.0379158594e+05
    1.0376133956e-02    1.0369815625e+05
    1.0395346209e-02    1.0361500000e+05
    1.0414571501e-02    1.0355060156e+05
    1.0433809832e-02    1.0349333594e+05
    1.0453061201e-02    1.0344383594e+05
    1.0472324677e-02    1.0341283594e+05
    1.0491601191e-02    1.0339193750e+05
    1.0510892607e-02    1.0338003906e+05
    1.0530196130e-02    1.0337441406e+05
    1.0549513623e-02    1.0336372656e+05
    1.0568842292e-02    1.0335303906e+05
    1.0588183999e-02    1.0333417969e+05
    1.0607538745e-02    1.0329897656e+05
    1.0626907460e-02    1.0325850000e+05
    1.0646289214e-02    1.0321760156e+05
    1.0665684007e-02    1.0316712500e+05
    1.0685092770e-02    1.0311177344e+05
    1.0704516433e-02    1.0305627344e+05
    1.0723951273e-02    1.0300196094e+05
    1.0743400082e-02    1.0295207031e+05
    1.0762862861e-02    1.0290452344e+05
    1.0782338679e-02    1.0286391406e+05
    1.0801829398e-02    1.0282485156e+05
    1.0821334086e-02    1.0279412500e+05
    1.0840852745e-02    1.0276200781e+05
    1.0860386305e-02    1.0273158594e+05
    1.0879932903e-02    1.0269257031e+05
    1.0899493471e-02    1.0265438281e+05
    1.0919069871e-02    1.0261719531e+05
    1.0938662104e-02    1.0257540625e+05
    1.0958270170e-02    1.0253883594e+05
    1.0977892205e-02    1.0249758594e+05
    1.0997531936e-02    1.0246058594e+05
    1.1017187499e-02    1.0242399219e+05
    1.1036860757e-02    1.0238866406e+05
    1.1056551710e-02    1.0236278125e+05
    1.1076259427e-02    1.0233837500e+05
    1.1095987633e-02    1.0231474219e+05
    1.1115733534e-02    1.0228116406e+05
    1.1135498993e-02    1.0223812500e+05
    1.1155283079e-02    1.0219387500e+05
    1.1175086722e-02    1.0214291406e+05
    1.1194912717e-02    1.0209402344e+05
    1.1214758269e-02    1.0204921094e+05
    1.1234625243e-02    1.0201216406e+05
    1.1254511774e-02    1.0198058594e+05
    1.1274418794e-02    1.0195322656e+05
    1.1294347234e-02    1.0192303906e+05
    1.1314296164e-02    1.0189211719e+05
    1.1334266514e-02    1.0186685156e+05
    1.1354257353e-02    1.0184018750e+05
    1.1374268681e-02    1.0181863281e+05
    1.1394302361e-02    1.0180485156e+05
    1.1414355598e-02    1.0178833594e+05
    1.1434430256e-02    1.0177508594e+05
    1.1454525404e-02    1.0175911719e+05
    1.1474640109e-02    1.0174910156e+05
    1.1494777165e-02    1.0173986719e+05
    1.1514934711e-02    1.0172622656e+05
    1.1535113677e-02    1.0171778906e+05
    1.1555313133e-02    1.0171153125e+05
    1.1575534008e-02    1.0170500781e+05
    1.1595774442e-02    1.0170014844e+05
    1.1616035365e-02    1.0171056250e+05
    1.1636316776e-02    1.0173628906e+05
    1.1656619608e-02    1.0178703906e+05
    1.1676942930e-02    1.0187783594e+05
    1.1697287671e-02    1.0202419531e+05
    1.1717652902e-02    1.0223931250e+05
    1.1738038622e-02    1.0254034375e+05
    1.1758443899e-02    1.0295974219e+05
    1.1778870597e-02    1.0351622656e+05
    1.1799318716e-02    1.0423177344e+05
    1.1819788255e-02    1.0510700000e+05
    1.1840280145e-02    1.0614283594e+05
    1.1860790662e-02    1.0728591406e+05
    1.1881321669e-02    1.0848025000e+05
    1.1901874095e-02    1.0964542969e+05
    1.1922447011e-02    1.1068302344e+05
    1.1943042278e-02    1.1151983594e+05
    1.1963658035e-02    1.1209828906e+05
    1.1984295212e-02    1.1239282031e+05
    1.2004952878e-02    1.1241216406e+05
    1.2025631964e-02    1.1217503906e+05
    1.2046331540e-02    1.1173967969e+05
    1.2067052536e-02    1.1115034375e+05
    1.2087795883e-02    1.1046982031e+05
    1.2108558789e-02    1.0974865625e+05
    1.2129344046e-02    1.0904610156e+05
    1.2150149792e-02    1.0839868750e+05
    1.2170976959e-02    1.0783403906e+05
    1.2191825546e-02    1.0737092969e+05
    1.2212695554e-02    1.0699535156e+05
    1.2233586982e-02    1.0667664844e+05
    1.2254500762e-02    1.0636460156e+05
    1.2275436893e-02    1.0603683594e+05
    1.2296394445e-02    1.0566538281e+05
    1.2317374349e-02    1.0523017969e+05
    1.2338375673e-02    1.0475041406e+05
    1.2359398417e-02    1.0422335156e+05
    1.2380442582e-02    1.0368221094e+05
    1.2401508167e-02    1.0314089844e+05
    1.2422595173e-02    1.0261346875e+05
    1.2443703599e-02    1.0213255469e+05
    1.2464834377e-02    1.0170389844e+05
    1.2485986575e-02    1.0133564844e+05
    1.2507158332e-02    1.0103383594e+05
    1.2528351508e-02    1.0078352344e+05
    1.2549565174e-02    1.0057424219e+05
    1.2570801191e-02    1.0039222656e+05
    1.2592058629e-02    1.0022650000e+05
    1.2613337487e-02    1.0007222656e+05
    1.2634636834e-02    9.9929726562e+04
    1.2655957602e-02    9.9802445312e+04
    1.2677297927e-02    9.9683601562e+04
    1.2698660605e-02    9.9589125000e+04
    1.2720043771e-02    9.9506093750e+04
    1.2741449289e-02    9.9447992188e+04
    1.2762876227e-02    9.9406367188e+04
    1.2784325518e-02    9.9393406250e+04
    1.2805794366e-02    9.9402320312e+04
    1.2827285565e-02    9.9421070312e+04
    1.2848797254e-02    9.9436820312e+04
    1.2870330364e-02    9.9444789062e+04
    1.2891885825e-02    9.9436585938e+04
    1.2913462706e-02    9.9403085938e+04
    1.2935061008e-02    9.9348898438e+04
    1.2956679799e-02    9.9278773438e+04
    1.2978320010e-02    9.9191617188e+04
    1.2999981642e-02    9.9099531250e+04
    1.3021663763e-02    9.9016992188e+04
    1.3043368235e-02    9.8956945312e+04
    1.3065092266e-02    9.8928750000e+04
    1.3086837716e-02    9.8928562500e+04
    1.3108605519e-02    9.8966195312e+04
    1.3130392879e-02    9.9029406250e+04
    1.3152201660e-02    9.9100976562e+04
    1.3174032792e-02    9.9181773438e+04
    1.3195885345e-02    9.9251179688e+04
    1.3217759319e-02    9.9299539062e+04
    1.3239653781e-02    9.9328539062e+04
    1.3261569664e-02    9.9336687500e+04
    1.3283506967e-02    9.9325164062e+04
    1.3305463828e-02    9.9305585938e+04
    1.3327440247e-02    9.9286851562e+04
    1.3349435292e-02    9.9276656250e+04
    1.3371448033e-02    9.9280835938e+04
    1.3393475674e-02    9.9300992188e+04
    1.3415516354e-02    9.9333289062e+04
    1.3437564485e-02    9.9370601562e+04
    1.3459613547e-02    9.9420531250e+04
    1.3481658883e-02    9.9470132812e+04
    1.3503690250e-02    9.9517976562e+04
    1.3525702059e-02    9.9559320312e+04
    1.3547683135e-02    9.9598367188e+04
    1.3569628820e-02    9.9637992188e+04
    1.3591531664e-02    9.9673898438e+04
    1.3613392599e-02    9.9710968750e+04
    1.3635210693e-02    9.9746835938e+04
    1.3656994328e-02    9.9788257812e+04
    1.3678749092e-02    9.9829343750e+04
    1.3700488023e-02    9.9872187500e+04
    1.3722228818e-02    9.9920585938e+04
    1.3743981719e-02    9.9976523438e+04
    1.3765762560e-02    1.0003117969e+05
    1.3787578791e-02    1.0009233594e+05
    1.3809437864e-02    1.0016174219e+05
    1.3831341639e-02    1.0022850000e+05
    1.3853288256e-02    1.0029192969e+05
    1.3875273056e-02    1.0035394531e+05
    1.3897285797e-02    1.0042133594e+05
    1.3919321820e-02    1.0048510156e+05
    1.3941374607e-02    1.0054009375e+05
    1.3963440433e-02    1.0060089844e+05
    1.3985517435e-02    1.0065677344e+05
    1.4007603750e-02    1.0070647656e+05
    1.4029704034e-02    1.0075575000e+05
    1.4051820152e-02    1.0079825000e+05
    1.4073957689e-02    1.0083835156e+05
    1.4096121304e-02    1.0086441406e+05
    1.4118315652e-02    1.0088684375e+05
    1.4140545391e-02    1.0090303906e+05
    1.4162814245e-02    1.0091660156e+05
    1.4185124077e-02    1.0092183594e+05
    1.4207473956e-02    1.0092410156e+05
    1.4229862019e-02    1.0092255469e+05
    1.4252286404e-02    1.0091541406e+05
    1.4274741523e-02    1.0090027344e+05
    1.4297228307e-02    1.0088846094e+05
    1.4319745824e-02    1.0087367969e+05
    1.4342290349e-02    1.0086083594e+05
    1.4364863746e-02    1.0084696875e+05
    1.4387467876e-02    1.0082767969e+05
    1.4410103671e-02    1.0081177344e+05
    1.4432771131e-02    1.0079110156e+05
    1.4455472119e-02    1.0077077344e+05
    1.4478209428e-02    1.0074391406e+05
    1.4500979334e-02    1.0072286719e+05
    1.4523783699e-02    1.0070953125e+05
    1.4546621591e-02    1.0068644531e+05
    1.4569494873e-02    1.0067253906e+05
    1.4592399821e-02    1.0065758594e+05
    1.4615339227e-02    1.0063725781e+05
    1.4638305642e-02    1.0062134375e+05
    1.4661304653e-02    1.0061055469e+05
    1.4684336260e-02    1.0060400781e+05
    1.4707398601e-02    1.0059793750e+05
    1.4730494469e-02    1.0059271094e+05
    1.4753622934e-02    1.0059225000e+05
    1.4776783995e-02    1.0058697656e+05
    1.4799979515e-02    1.0058866406e+05
    1.4823205769e-02    1.0058605469e+05
    1.4846466482e-02    1.0059080469e+05
    1.4869757928e-02    1.0058733594e+05
    1.4893081971e-02    1.0058418750e+05
    1.4916437678e-02    1.0058202344e+05
    1.4939822257e-02    1.0058367969e+05
    1.4963239431e-02    1.0059510156e+05
    1.4986685477e-02    1.0060897656e+05
    1.5010161325e-02    1.0063160156e+05
    1.5033668838e-02    1.0066378906e+05
    1.5057205223e-02    1.0069708594e+05
    1.5080772340e-02    1.0073725000e+05
    1.5104367398e-02    1.0078621094e+05
    1.5127992257e-02    1.0083263281e+05
    1.5151646920e-02    1.0087856250e+05
    1.5175330453e-02    1.0092525781e+05
    1.5199041925e-02    1.0097289844e+05
    1.5222782269e-02    1.0101253906e+05
    1.5246548690e-02    1.0104957031e+05
    1.5270343982e-02    1.0107683594e+05
    1.5294168144e-02    1.0109767969e+05
    1.5318016522e-02    1.0110771094e+05
    1.5341891907e-02    1.0111322656e+05
    1.5365792438e-02    1.0111513281e+05
    1.5389721841e-02    1.0111581250e+05
    1.5413676389e-02    1.0111472656e+05
    1.5437657945e-02    1.0110811719e+05
    1.5461664647e-02    1.0110290625e+05
    1.5485695563e-02    1.0110496094e+05
    1.5509752557e-02    1.0110353906e+05
    1.5533835627e-02    1.0111100781e+05
    1.5557944775e-02    1.0112246875e+05
    1.5582079068e-02    1.0113325000e+05
    1.5606240369e-02    1.0115371094e+05
    1.5630424023e-02    1.0117525781e+05
    1.5654634684e-02    1.0119736719e+05
    1.5678871423e-02    1.0121946094e+05
    1.5703132376e-02    1.0124199219e+05
    1.5727419406e-02    1.0127474219e+05
    1.5751728788e-02    1.0130886719e+05
    1.5776060522e-02    1.0133416406e+05
    1.5800418332e-02    1.0135858594e+05
    1.5824800357e-02    1.0138150000e+05
    1.5849204734e-02    1.0140008594e+05
    1.5873633325e-02    1.0142534375e+05
    1.5898084268e-02    1.0144207031e+05
    1.5922557563e-02    1.0145796094e+05
    1.5947058797e-02    1.0146613281e+05
    1.5971582383e-02    1.0147760156e+05
    1.5996130183e-02    1.0148134375e+05
    1.6020702198e-02    1.0149280469e+05
    1.6045298427e-02    1.0150314844e+05
    1.6069920734e-02    1.0150350000e+05
    1.6094569117e-02    1.0149330469e+05
    1.6119243577e-02    1.0149125781e+05
    1.6143942252e-02    1.0149321094e+05
    1.6168667004e-02    1.0149460156e+05
    1.6193419695e-02    1.0149065625e+05
    1.6218200326e-02    1.0148635156e+05
    1.6243007034e-02    1.0148202344e+05
    1.6267839819e-02    1.0147997656e+05
    1.6292702407e-02    1.0147781250e+05
    1.6317596659e-02    1.0147906250e+05
    1.6342513263e-02    1.0148469531e+05
    1.6367461532e-02    1.0148133594e+05
    1.6392435879e-02    1.0148708594e+05
    1.6417443752e-02    1.0149539844e+05
    1.6442479566e-02    1.0150982031e+05
    1.6467543319e-02    1.0152730469e+05
    1.6492636874e-02    1.0154661719e+05
    1.6517756507e-02    1.0156697656e+05
    1.6542907804e-02    1.0158896094e+05
    1.6568088904e-02    1.0162177344e+05
    1.6593271866e-02    1.0165334375e+05
    1.6618426889e-02    1.0168235156e+05
    1.6643559560e-02    1.0171303125e+05
    1.6668669879e-02    1.0174961719e+05
    1.6693757847e-02    1.0177047656e+05
    1.6718825325e-02    1.0179628125e+05
    1.6743874177e-02    1.0181183594e+05
    1.6768900678e-02    1.0183192969e+05
    1.6793908551e-02    1.0185199219e+05
    1.6818899661e-02    1.0187131250e+05
    1.6843874007e-02    1.0188046094e+05
    1.6868829727e-02    1.0187831250e+05
    1.6893770546e-02    1.0188321094e+05
    1.6918692738e-02    1.0187733594e+05
    1.6943598166e-02    1.0187260156e+05
    1.6968490556e-02    1.0187102344e+05
    1.6993366182e-02    1.0186222656e+05
    1.7018226907e-02    1.0186158594e+05
    1.7043072730e-02    1.0186046094e+05
    1.7067901790e-02    1.0186224219e+05
    1.7092714086e-02    1.0186305469e+05
    1.7117511481e-02    1.0185789844e+05
    1.7142292112e-02    1.0184899219e+05
    1.7167057842e-02    1.0184399219e+05
    1.7191808671e-02    1.0184439844e+05
    1.7216544598e-02    1.0184453125e+05
    1.7241263762e-02    1.0184411719e+05
    1.7265968025e-02    1.0184331250e+05
    1.7290659249e-02    1.0184614844e+05
    1.7315333709e-02    1.0185003906e+05
    1.7339993268e-02    1.0184741406e+05
    1.7364639789e-02    1.0185002344e+05
    1.7389267683e-02    1.0185111719e+05
    1.7413880676e-02    1.0184850000e+05
    1.7438478768e-02    1.0184525781e+05
    1.7463061959e-02    1.0185197656e+05
    1.7487626523e-02    1.0186543750e+05
    1.7512176186e-02    1.0187972656e+05
    1.7536709085e-02    1.0189553125e+05
    1.7561223358e-02    1.0192339844e+05
    1.7585720867e-02    1.0195950000e+05
    1.7610201612e-02    1.0201388281e+05
    1.7634663731e-02    1.0208825781e+05
    1.7659107223e-02    1.0216830469e+05
    1.7683532089e-02    1.0227547656e+05
    1.7707940191e-02    1.0238990625e+05
    1.7732329667e-02    1.0252328906e+05
    1.7756698653e-02    1.0267562500e+05
    1.7781050876e-02    1.0282919531e+05
    1.7805384472e-02    1.0297752344e+05
    1.7829699442e-02    1.0312321094e+05
    1.7853999510e-02    1.0324459375e+05
    1.7878280953e-02    1.0334283594e+05
    1.7902545631e-02    1.0340902344e+05
    1.7926793545e-02    1.0343450000e+05
    1.7951028422e-02    1.0341503906e+05
    1.7975246534e-02    1.0335589844e+05
    1.7999447882e-02    1.0325067969e+05
    1.8023636192e-02    1.0310296094e+05
    1.8047811463e-02    1.0290599219e+05
    1.8071975559e-02    1.0266709375e+05
    1.8096126616e-02    1.0240085156e+05
    1.8120266497e-02    1.0212102344e+05
    1.8144397065e-02    1.0183746875e+05
    1.8168520182e-02    1.0157244531e+05
    1.8192630261e-02    1.0132478125e+05
    1.8216732889e-02    1.0111240625e+05
    1.8240824342e-02    1.0092421875e+05
    1.8264908344e-02    1.0077064844e+05
    1.8288983032e-02    1.0065022656e+05
    1.8313048407e-02    1.0056303125e+05
    1.8337102607e-02    1.0050321094e+05
    1.8361147493e-02    1.0047628906e+05
    1.8385183066e-02    1.0047077344e+05
    1.8409207463e-02    1.0048703125e+05
    1.8433224410e-02    1.0052257031e+05
    1.8457230181e-02    1.0056943750e+05
    1.8481226638e-02    1.0063189844e+05
    1.8505210057e-02    1.0070477344e+05
    1.8529184163e-02    1.0078402344e+05
    1.8553148955e-02    1.0086614844e+05
    1.8577100709e-02    1.0095378125e+05
    1.8601041287e-02    1.0103159375e+05
    1.8624972552e-02    1.0111800000e+05
    1.8648892641e-02    1.0119430469e+05
    1.8672801554e-02    1.0127087500e+05
    1.8696699291e-02    1.0133315625e+05
    1.8720587716e-02    1.0138894531e+05
    1.8744463101e-02    1.0143889844e+05
    1.8768329173e-02    1.0148074219e+05
    1.8792184070e-02    1.0151831250e+05
    1.8816027790e-02    1.0155659375e+05
    1.8839860335e-02    1.0159062500e+05
    1.8863683566e-02    1.0163417969e+05
    1.8887493759e-02    1.0167339844e+05
    1.8911294639e-02    1.0172483594e+05
    1.8935086206e-02    1.0177641406e+05
    1.8958866596e-02    1.0183043750e+05
    1.8982635811e-02    1.0189047656e+05
    1.9006397575e-02    1.0194753906e+05
    1.9030146301e-02    1.0200700781e+05
    1.9053885713e-02    1.0206146094e+05
    1.9077615812e-02    1.0210725000e+05
    1.9101334736e-02    1.0215717969e+05
    1.9125042483e-02    1.0220250000e+05
    1.9148740917e-02    1.0224760156e+05
    1.9172428176e-02    1.0228889844e+05
    1.9196104258e-02    1.0232396094e+05
    1.9219771028e-02    1.0236303125e+05
    1.9243424758e-02    1.0240728125e+05
    1.9267069176e-02    1.0245139844e+05
    1.9290700555e-02    1.0249312500e+05
    1.9314322621e-02    1.0252880469e+05
    1.9337931648e-02    1.0256121094e+05
    1.9361529499e-02    1.0259233594e+05
    1.9385114312e-02    1.0262042969e+05
    1.9408687949e-02    1.0264792969e+05
    1.9432250410e-02    1.0267715625e+05
    1.9455801696e-02    1.0270416406e+05
    1.9479339942e-02    1.0272021094e+05
    1.9502865151e-02    1.0273386719e+05
    1.9526379183e-02    1.0274571094e+05
    1.9549878314e-02    1.0276400781e+05
    1.9573366269e-02    1.0277208594e+05
    1.9596841186e-02    1.0277749219e+05
    1.9620303065e-02    1.0277652344e+05
    1.9643751904e-02    1.0277602344e+05
    1.9667187706e-02    1.0277067969e+05
    1.9690606743e-02    1.0276250781e+05
    1.9714014605e-02    1.0274967969e+05
    1.9737409428e-02    1.0273285156e+05
    1.9760791212e-02    1.0271333594e+05
    1.9784159958e-02    1.0268984375e+05
    1.9807513803e-02    1.0266278906e+05
    1.9830854610e-02    1.0263221094e+05
    1.9854182377e-02    1.0260046094e+05
    1.9877497107e-02    1.0256084375e+05
    1.9900798798e-02    1.0252921094e+05
    1.9924087450e-02    1.0249078125e+05
    1.9947361201e-02    1.0244975781e+05
    1.9970623776e-02    1.0240947656e+05
    1.9993871450e-02    1.0236711719e+05
    2.0017107949e-02    1.0232139844e+05
    2.0040329546e-02    1.0227811719e+05
    2.0063538104e-02    1.0223368750e+05
    2.0086731762e-02    1.0218855469e+05
    2.0109914243e-02    1.0214236719e+05
    2.0133081824e-02    1.0210071094e+05
    2.0156236365e-02    1.0206391406e+05
    2.0179376006e-02    1.0202735156e+05
    2.0202504471e-02    1.0198943750e+05
    2.0225618035e-02    1.0195352344e+05
    2.0248720422e-02    1.0192818750e+05
    2.0271807909e-02    1.0190310156e+05
    2.0294882357e-02    1.0189085156e+05
    2.0317947492e-02    1.0188441406e+05
    2.0340997726e-02    1.0188052344e+05
    2.0364036784e-02    1.0187821094e+05
    2.0387060940e-02    1.0188690625e+05
    2.0410073921e-02    1.0189227344e+05
    2.0433073863e-02    1.0191103906e+05
    2.0456060767e-02    1.0194403906e+05
    2.0479036495e-02    1.0197112500e+05
    2.0501999184e-02    1.0199205469e+05
    2.0524948835e-02    1.0202371094e+05
    2.0547885448e-02    1.0205194531e+05
    2.0570809022e-02    1.0208196094e+05
    2.0593719557e-02    1.0211296875e+05
    2.0616617054e-02    1.0214506250e+05
    2.0639499649e-02    1.0217366406e+05
    2.0662369207e-02    1.0219616406e+05
    2.0685223863e-02    1.0222214844e+05
    2.0708063617e-02    1.0223850000e+05
    2.0730890334e-02    1.0226300781e+05
    2.0753700286e-02    1.0227374219e+05
    2.0776495337e-02    1.0228613281e+05
    2.0799275488e-02    1.0229606250e+05
    2.0822042599e-02    1.0230297656e+05
    2.0844791085e-02    1.0229886719e+05
    2.0867524669e-02    1.0229139844e+05
    2.0890241489e-02    1.0229111719e+05
    2.0912945271e-02    1.0227825781e+05
    2.0935632288e-02    1.0226685156e+05
    2.0958306268e-02    1.0224953125e+05
    2.0980965346e-02    1.0222905469e+05
    2.1003607661e-02    1.0220589844e+05
    2.1026238799e-02    1.0217681250e+05
    2.1048855036e-02    1.0214982031e+05
    2.1071458235e-02    1.0211809375e+05
    2.1094048396e-02    1.0208997656e+05
    2.1116625518e-02    1.0205828906e+05
    2.1139191464e-02    1.0202847656e+05
    2.1161744371e-02    1.0200353906e+05
    2.1184286103e-02    1.0197335156e+05
    2.1206818521e-02    1.0194444531e+05
    2.1229337901e-02    1.0192286719e+05
    2.1251846105e-02    1.0190775781e+05
    2.1274344996e-02    1.0188857031e+05
    2.1296832711e-02    1.0187071094e+05
    2.1319312975e-02    1.0185871094e+05
    2.1341778338e-02    1.0184646875e+05
    2.1364232525e-02    1.0184097656e+05
    2.1386675537e-02    1.0183978125e+05
    2.1409107372e-02    1.0184402344e+05
    2.1431528032e-02    1.0185074219e+05
    2.1453931928e-02    1.0185772656e+05
    2.1476324648e-02    1.0186621875e+05
    2.1498700604e-02    1.0187142969e+05
    2.1521063522e-02    1.0188281250e+05
    2.1543409675e-02    1.0188502344e+05
    2.1565740928e-02    1.0189752344e+05
    2.1588053554e-02    1.0190812500e+05
    2.1610351279e-02    1.0191428125e+05
    2.1632634103e-02    1.0192214844e+05
    2.1654898301e-02    1.0193158594e+05
    2.1677147597e-02    1.0194097656e+05
    2.1699378267e-02    1.0193989844e+05
    2.1721594036e-02    1.0193889844e+05
    2.1743793041e-02    1.0195132031e+05
    2.1765975282e-02    1.0195482031e+05
    2.1788140759e-02    1.0195237500e+05
    2.1810289472e-02    1.0195403125e+05
    2.1832419559e-02    1.0195366406e+05
    2.1854531020e-02    1.0195309375e+05
    2.1876627579e-02    1.0195932031e+05
    2.1898705512e-02    1.0196697656e+05
    2.1920768544e-02    1.0196416406e+05
    2.1942811087e-02    1.0196535156e+05
    2.1964838728e-02    1.0197341406e+05
    2.1986849606e-02    1.0197671094e+05
    2.2008845583e-02    1.0197628125e+05
    2.2030822933e-02    1.0198777344e+05
    2.2052785382e-02    1.0198811719e+05
    2.2074732929e-02    1.0198938281e+05
    2.2096665576e-02    1.0200435156e+05
    2.2118583322e-02    1.0201090625e+05
    2.2140489891e-02    1.0201357031e+05
    2.2162377834e-02    1.0202028906e+05
    2.2184254602e-02    1.0202690625e+05
    2.2206118330e-02    1.0203747656e+05
    2.2227969021e-02    1.0203402344e+05
    2.2249806672e-02    1.0203967969e+05
    2.2271629423e-02    1.0204452344e+05
    2.2293440998e-02    1.0203903906e+05
    2.2315241396e-02    1.0204246094e+05
    2.2337028757e-02    1.0205510156e+05
    2.2358803079e-02    1.0204885156e+05
    2.2380566224e-02    1.0205056250e+05
    2.2402318195e-02    1.0204640625e+05
    2.2424057126e-02    1.0204467969e+05
    2.2445784882e-02    1.0204464844e+05
    2.2467501462e-02    1.0204728906e+05
    2.2489206865e-02    1.0205289844e+05
    2.2510899231e-02    1.0205347656e+05
    2.2532582283e-02    1.0205458594e+05
    2.2554252297e-02    1.0206039844e+05
    2.2575911134e-02    1.0206225781e+05
    2.2597560659e-02    1.0206960156e+05
    2.2619199008e-02    1.0207249219e+05
    2.2640828043e-02    1.0208043750e+05
    2.2662445903e-02    1.0208994531e+05
    2.2684050724e-02    1.0209491406e+05
    2.2705646232e-02    1.0210446875e+05
    2.2727232426e-02    1.0211428906e+05
    2.2748809308e-02    1.0212064844e+05
    2.2770375013e-02    1.0212625000e+05
    2.2791929543e-02    1.0213196094e+05
    2.2813472897e-02    1.0213255469e+05
    2.2835006937e-02    1.0213339844e+05
    2.2856531665e-02    1.0214790625e+05
    2.2878047079e-02    1.0214817969e+05
    2.2899549454e-02    1.0214719531e+05
    2.2921044379e-02    1.0215059375e+05
    2.2942528129e-02    1.0214855469e+05
    2.2964000702e-02    1.0214613281e+05
    2.2985465825e-02    1.0214271094e+05
    2.3006917909e-02    1.0214327344e+05
    2.3028360680e-02    1.0213983594e+05
    2.3049792275e-02    1.0214069531e+05
    2.3071214557e-02    1.0214093750e+05
    2.3092625663e-02    1.0213553906e+05
    2.3114029318e-02    1.0213007031e+05
    2.3135419935e-02    1.0212827344e+05
    2.3156799376e-02    1.0212221094e+05
    2.3178169504e-02    1.0212486719e+05
    2.3199530318e-02    1.0212289844e+05
    2.3220879957e-02    1.0211847656e+05
    2.3242218420e-02    1.0211936719e+05
    2.3263547570e-02    1.0211841406e+05
    2.3284865543e-02    1.0212275000e+05
    2.3306174204e-02    1.0212538281e+05
    2.3327469826e-02    1.0212808594e+05
    2.3348756135e-02    1.0212908594e+05
    2.3370031267e-02    1.0213972656e+05
    2.3391297087e-02    1.0214103906e+05
    2.3412553594e-02    1.0215196875e+05
    2.3433798924e-02    1.0215878906e+05
    2.3455033079e-02    1.0216653125e+05
    2.3476256058e-02    1.0217392969e+05
    2.3497469723e-02    1.0218333594e+05
    2.3518672213e-02    1.0219689844e+05
    2.3539865389e-02    1.0221185156e+05
    2.3561049253e-02    1.0222858594e+05
    2.3582221940e-02    1.0224635156e+05
    2.3603385314e-02    1.0226542969e+05
    2.3624535650e-02    1.0227986719e+05
    2.3645676672e-02    1.0230003906e+05
    2.3666808382e-02    1.0231694531e+05
    2.3687927052e-02    1.0233936719e+05
    2.3709038273e-02    1.0236228906e+05
    2.3730138317e-02    1.0238671875e+05
    2.3751227185e-02    1.0240125781e+05
    2.3772306740e-02    1.0240593750e+05
    2.3793375120e-02    1.0241941406e+05
    2.3814432323e-02    1.0243261719e+05
    2.3835480213e-02    1.0243496094e+05
    2.3856516927e-02    1.0243685156e+05
    2.3877544329e-02    1.0243800781e+05
    2.3898560554e-02    1.0243790625e+05
    2.3919565603e-02    1.0242596094e+05
    2.3940561339e-02    1.0241289844e+05
    2.3961545900e-02    1.0239671094e+05
    2.3982519284e-02    1.0236880469e+05
    2.4003483355e-02    1.0233266406e+05
    2.4024436250e-02    1.0229816406e+05
    2.4045377970e-02    1.0226182031e+05
    2.4066310376e-02    1.0222313281e+05
    2.4087233469e-02    1.0217897656e+05
    2.4108145386e-02    1.0213291406e+05
    2.4129044265e-02    1.0209122656e+05
    2.4149935693e-02    1.0205283594e+05
    2.4170814082e-02    1.0201228906e+05
    2.4191683158e-02    1.0198497656e+05
    2.4212542921e-02    1.0196447656e+05
    2.4233391508e-02    1.0195489844e+05
    2.4254228920e-02    1.0195196094e+05
    2.4275057018e-02    1.0195652344e+05
    2.4295873940e-02    1.0196633594e+05
    2.4316681549e-02    1.0198362500e+05
    2.4337477982e-02    1.0200119531e+05
    2.4358265102e-02    1.0202767969e+05
    2.4379042909e-02    1.0205660156e+05
    2.4399809539e-02    1.0208528125e+05
    2.4420566857e-02    1.0211685156e+05
    2.4441312999e-02    1.0214647656e+05
    2.4462047964e-02    1.0217365625e+05
    2.4482775480e-02    1.0219730469e+05
    2.4503491819e-02    1.0222264844e+05
    2.4524198845e-02    1.0224336719e+05
    2.4544894695e-02    1.0225600000e+05
    2.4565581232e-02    1.0227847656e+05
    2.4586258456e-02    1.0229228906e+05
    2.4606924504e-02    1.0230611719e+05
    2.4627581239e-02    1.0232019531e+05
    2.4648228660e-02    1.0232603125e+05
    2.4668866768e-02    1.0233696875e+05
    2.4689495564e-02    1.0235040625e+05
    2.4710113183e-02    1.0236389844e+05
    2.4730721489e-02    1.0237660156e+05
    2.4751318619e-02    1.0238928125e+05
    2.4771906435e-02    1.0240153906e+05
    2.4792486802e-02    1.0240828906e+05
    2.4813055992e-02    1.0242003906e+05
    2.4833614007e-02    1.0243183594e+05
    2.4854162708e-02    1.0244344531e+05
    2.4874702096e-02    1.0245465625e+05
    2.4895232171e-02    1.0246125000e+05
    2.4915752932e-02    1.0247231250e+05
    2.4936262518e-02    1.0248274219e+05
    2.4956764653e-02    1.0249127344e+05
    2.4977253750e-02    1.0249453906e+05
    2.4997735396e-02    1.0249712500e+05
    2.5018205866e-02    1.0249847656e+05
    2.5038668886e-02    1.0250164844e+05
    2.5059120730e-02    1.0249824219e+05
    2.5079563260e-02    1.0249490625e+05
    2.5099996477e-02    1.0250028125e+05
    2.5120420381e-02    1.0249608594e+05
    2.5140833110e-02    1.0249172656e+05
    2.5161236525e-02    1.0249561719e+05
    2.5181630626e-02    1.0248903125e+05
    2.5202017277e-02    1.0248168750e+05
    2.5222390890e-02    1.0247246094e+05
    2.5242757052e-02    1.0246271875e+05
    2.5263112038e-02    1.0245703906e+05
    2.5283459574e-02    1.0244850000e+05
    2.5303795934e-02    1.0243860156e+05
    2.5324124843e-02    1.0242865625e+05
    2.5344440714e-02    1.0241741406e+05
    2.5364749134e-02    1.0240747656e+05
    2.5385048240e-02    1.0239159375e+05
    2.5405339897e-02    1.0237503906e+05
    2.5425618514e-02    1.0236710156e+05
    2.5445887819e-02    1.0234982031e+05
    2.5466147810e-02    1.0234113281e+05
    2.5486400351e-02    1.0232962500e+05
    2.5506639853e-02    1.0231330469e+05
    2.5526873767e-02    1.0230314844e+05
    2.5547094643e-02    1.0228356250e+05
    2.5567308068e-02    1.0227339844e+05
    2.5587510318e-02    1.0226800781e+05
    2.5607703254e-02    1.0226332031e+05
    2.5627886876e-02    1.0225391406e+05
    2.5648061186e-02    1.0224403906e+05
    2.5668226182e-02    1.0223456250e+05
    2.5688380003e-02    1.0222528906e+05
    2.5708526373e-02    1.0222339844e+05
    2.5728661567e-02    1.0222278906e+05
    2.5748789310e-02    1.0222053906e+05
    2.5768904015e-02    1.0221405469e+05
    2.5789011270e-02    1.0221108594e+05
    2.5809109211e-02    1.0220784375e+05
    2.5829195976e-02    1.0220766406e+05
    2.5849273428e-02    1.0221247656e+05
    2.5869343430e-02    1.0220866406e+05
    2.5889402255e-02    1.0221503906e+05
    2.5909451768e-02    1.0222174219e+05
    2.5929493830e-02    1.0222000781e+05
    2.5949522853e-02    1.0222266406e+05
    2.5969544426e-02    1.0222071094e+05
    2.5989556685e-02    1.0222463281e+05
    2.6009559631e-02    1.0222371875e+05
    2.6029553264e-02    1.0223314844e+05
    2.6049537584e-02    1.0223359375e+05
    2.6069512591e-02    1.0224363281e+05
    2.6089478284e-02    1.0224417969e+05
    2.6109432802e-02    1.0224521094e+05
    2.6129379869e-02    1.0225027344e+05
    2.6149315760e-02    1.0225647656e+05
    2.6169244200e-02    1.0225887500e+05
    2.6189163327e-02    1.0227062500e+05
    2.6209073141e-02    1.0227324219e+05
    2.6228975505e-02    1.0227608594e+05
    2.6248866692e-02    1.0227857031e+05
    2.6268748567e-02    1.0228164844e+05
    2.6288621128e-02    1.0228456250e+05
    2.6308484375e-02    1.0228743750e+05
    2.6328338310e-02    1.0229528906e+05
    2.6348184794e-02    1.0230346875e+05
    2.6368021965e-02    1.0230712500e+05
    2.6387847960e-02    1.0231062500e+05
    2.6407664642e-02    1.0231022656e+05
    2.6427472010e-02    1.0230996094e+05
    2.6447271928e-02    1.0231230469e+05
    2.6467062533e-02    1.0231953906e+05
    2.6486843824e-02    1.0232191406e+05
    2.6506617665e-02    1.0231922656e+05
    2.6526380330e-02    1.0231710156e+05
    2.6546133682e-02    1.0232000000e+05
    2.6565877721e-02    1.0232735156e+05
    2.6585612446e-02    1.0233500781e+05
    2.6605339721e-02    1.0233303125e+05
    2.6625057682e-02    1.0233053906e+05
    2.6644766331e-02    1.0233222656e+05
    2.6664465666e-02    1.0233425781e+05
    2.6684155688e-02    1.0233609375e+05
    2.6703836396e-02    1.0233321094e+05
    2.6723509654e-02    1.0233053906e+05
    2.6743173599e-02    1.0233684375e+05
    2.6762828231e-02    1.0233537500e+05
    2.6782475412e-02    1.0233942969e+05
    2.6802113280e-02    1.0234088281e+05
    2.6821739972e-02    1.0233862500e+05
    2.6841359213e-02    1.0234050000e+05
    2.6860967278e-02    1.0234189844e+05
    2.6880569756e-02    1.0234319531e+05
    2.6900164783e-02    1.0234403906e+05
    2.6919748634e-02    1.0234566406e+05
    2.6939325035e-02    1.0234693750e+05
    2.6958892122e-02    1.0234810156e+05
    2.6978449896e-02    1.0234647656e+05
    2.6997998357e-02    1.0234481250e+05
    2.7017539367e-02    1.0234156250e+05
    2.7037071064e-02    1.0235216406e+05
    2.7056595311e-02    1.0235340625e+05
    2.7076110244e-02    1.0235384375e+05
    2.7095617726e-02    1.0235435156e+05
    2.7115115896e-02    1.0235277344e+05
    2.7134604752e-02    1.0235569531e+05
    2.7154086158e-02    1.0235658594e+05
    2.7173558250e-02    1.0235725000e+05
    2.7193021029e-02    1.0235503906e+05
    2.7212476358e-02    1.0235577344e+05
    2.7231922373e-02    1.0235407031e+05
    2.7251357213e-02    1.0235503906e+05
    2.7270786464e-02    1.0235136719e+05
    2.7290204540e-02    1.0236141406e+05
    2.7309613302e-02    1.0236064844e+05
    2.7329014614e-02    1.0235664844e+05
    2.7348404750e-02    1.0236403125e+05
    2.7367785573e-02    1.0236466406e+05
    2.7387158945e-02    1.0236527344e+05
    2.7406521142e-02    1.0236616406e+05
    2.7425874025e-02    1.0235964844e+05
    2.7445219457e-02    1.0235978125e+05
    2.7464553714e-02    1.0236246094e+05
    2.7483878657e-02    1.0236265625e+05
    2.7503194287e-02    1.0236513281e+05
    2.7522502467e-02    1.0236268750e+05
    2.7541799471e-02    1.0236025781e+05
    2.7561087161e-02    1.0235771094e+05
    2.7580365539e-02    1.0235960156e+05
    2.7599634603e-02    1.0236158594e+05
    2.7618894354e-02    1.0236199219e+05
    2.7638144791e-02    1.0235739844e+05
    2.7657385916e-02    1.0236190625e+05
    2.7676619589e-02    1.0235985156e+05
    2.7695843950e-02    1.0236183594e+05
    2.7715058997e-02    1.0236427344e+05
    2.7734262869e-02    1.0235739844e+05
    2.7753459290e-02    1.0236428906e+05
    2.7772648260e-02    1.0236162500e+05
    2.7791827917e-02    1.0235692969e+05
    2.7810998261e-02    1.0235881250e+05
    2.7830159292e-02    1.0235853125e+05
    2.7849311009e-02    1.0235599219e+05
    2.7868455276e-02    1.0235653125e+05
    2.7887590230e-02    1.0236641406e+05
    2.7906717733e-02    1.0236710156e+05
    2.7925835922e-02    1.0235778906e+05
    2.7944946662e-02    1.0235750000e+05
    2.7964048088e-02    1.0235722656e+05
    2.7983140200e-02    1.0236116406e+05
    2.8002224863e-02    1.0236046094e+05
    2.8021300212e-02    1.0235817969e+05
    2.8040368110e-02    1.0235557031e+05
    2.8059426695e-02    1.0235542969e+05
    2.8078475967e-02    1.0236002344e+05
    2.8097519651e-02    1.0235521875e+05
    2.8116554022e-02    1.0235696875e+05
    2.8135580942e-02    1.0235669531e+05
    2.8154598549e-02    1.0235784375e+05
    2.8173606843e-02    1.0235228906e+05
    2.8192607686e-02    1.0235075000e+05
    2.8211599216e-02    1.0234941406e+05
    2.8230583295e-02    1.0234817969e+05
    2.8249559924e-02    1.0234728125e+05
    2.8268527240e-02    1.0234591406e+05
    2.8287487105e-02    1.0234418750e+05
    2.8306435794e-02    1.0234200000e+05
    2.8325378895e-02    1.0234003125e+05
    2.8344312683e-02    1.0233777344e+05
    2.8363237157e-02    1.0233609375e+05
    2.8382156044e-02    1.0233417969e+05
    2.8401065618e-02    1.0233230469e+05
    2.8419965878e-02    1.0233116406e+05
    2.8438858688e-02    1.0232977344e+05
    2.8457742184e-02    1.0232803906e+05
    2.8476616368e-02    1.0232633594e+05
    2.8495483100e-02    1.0232477344e+05
    2.8514338657e-02    1.0232580469e+05
    2.8533160686e-02    1.0233294531e+05
    2.8551930562e-02    1.0233340625e+05
    2.8570635244e-02    1.0233216406e+05
    2.8589271009e-02    1.0233077344e+05
    2.8607837856e-02    1.0233609375e+05
    2.8626350686e-02    1.0233747656e+05
    2.8644818813e-02    1.0233956250e+05
    2.8663259000e-02    1.0234208594e+05
    2.8681686148e-02    1.0234697656e+05
    2.8700113297e-02    1.0235209375e+05
    2.8718546033e-02    1.0235583594e+05
    2.8736986220e-02    1.0235988281e+05
    2.8755431995e-02    1.0236875781e+05
    2.8773877770e-02    1.0237353906e+05
    2.8792314231e-02    1.0237834375e+05
    2.8810730204e-02    1.0238337500e+05
    2.8829116374e-02    1.0238809375e+05
    2.8847465292e-02    1.0239336719e+05
    2.8865773231e-02    1.0240028125e+05
    2.8884036466e-02    1.0240775781e+05
    2.8902258724e-02    1.0241297656e+05
    2.8920443729e-02    1.0242012500e+05
    2.8938598931e-02    1.0242291406e+05
    2.8956729919e-02    1.0242597656e+05
    2.8974846005e-02    1.0242861719e+05
    2.8992949054e-02    1.0243278125e+05
    2.9011042789e-02    1.0243708594e+05
    2.9029129073e-02    1.0244071875e+05
    2.9047204182e-02    1.0244422656e+05
    2.9065268114e-02    1.0244741406e+05
    2.9083315283e-02    1.0245066406e+05
    2.9101338238e-02    1.0244855469e+05
    2.9119335115e-02    1.0245084375e+05
    2.9137304053e-02    1.0244774219e+05
    2.9155241325e-02    1.0244646094e+05
    2.9173148796e-02    1.0244484375e+05
    2.9191024601e-02    1.0244467969e+05
    2.9208874330e-02    1.0244464844e+05
    2.9226697981e-02    1.0244477344e+05
    2.9244501144e-02    1.0244572656e+05
    2.9262285680e-02    1.0244612500e+05
    2.9280053452e-02    1.0244637500e+05
    2.9297806323e-02    1.0244585156e+05
    2.9315544292e-02    1.0244346094e+05
    2.9333265498e-02    1.0244015625e+05
    2.9350971803e-02    1.0243971875e+05
    2.9368655756e-02    1.0243881250e+05
    2.9386319220e-02    1.0243785156e+05
    2.9403960332e-02    1.0243719531e+05
    2.9421577230e-02    1.0243660156e+05
    2.9439168051e-02    1.0243835156e+05
    2.9456734657e-02    1.0244067969e+05
    2.9474277049e-02    1.0243966406e+05
    2.9491795227e-02    1.0243472656e+05
    2.9509292915e-02    1.0243447656e+05
    2.9526771978e-02    1.0243850781e+05
    2.9544232413e-02    1.0244360156e+05
    2.9561674222e-02    1.0244366406e+05
    2.9579099268e-02    1.0244172656e+05
    2.9596509412e-02    1.0243690625e+05
    2.9613900930e-02    1.0243653906e+05
    2.9631273821e-02    1.0244069531e+05
    2.9648626223e-02    1.0243514844e+05
    2.9665958136e-02    1.0243699219e+05
    2.9683271423e-02    1.0243503906e+05
    2.9700560495e-02    1.0243321094e+05
    2.9717829078e-02    1.0243422656e+05
    2.9735075310e-02    1.0243721094e+05
    2.9752301052e-02    1.0243541406e+05
    2.9769508168e-02    1.0243587500e+05
    2.9786696658e-02    1.0243542969e+05
    2.9803866521e-02    1.0242981250e+05
    2.9821017757e-02    1.0242410156e+05
    2.9838152230e-02    1.0241750781e+05
    2.9855269939e-02    1.0241083594e+05
    2.9872370884e-02    1.0240385156e+05
    2.9889453202e-02    1.0239599219e+05
    2.9906518757e-02    1.0239339844e+05
    2.9923565686e-02    1.0239039844e+05
    2.9940593988e-02    1.0238721094e+05
    2.9957601801e-02    1.0237478125e+05
    2.9974590987e-02    1.0237085156e+05
    2.9991561547e-02    1.0235727344e+05
    3.0008511618e-02    1.0235247656e+05
    3.0025444925e-02    1.0234289844e+05
    3.0042361468e-02    1.0233283594e+05
    3.0059259385e-02    1.0232740625e+05
    3.0076142401e-02    1.0232191406e+05
    3.0093006790e-02    1.0231653906e+05
    3.0109854415e-02    1.0231096094e+05
    3.0126683414e-02    1.0230603906e+05
    3.0143497512e-02    1.0230521875e+05
    3.0160292983e-02    1.0230546094e+05
    3.0177071691e-02    1.0230103906e+05
    3.0193833634e-02    1.0230399219e+05
    3.0210576952e-02    1.0230343750e+05
    3.0227303505e-02    1.0231038281e+05
    3.0244011432e-02    1.0230831250e+05
    3.0260702595e-02    1.0231567969e+05
    3.0277376994e-02    1.0231950781e+05
    3.0294034630e-02    1.0232335156e+05
    3.0310675502e-02    1.0233300781e+05
    3.0327299610e-02    1.0233341406e+05
    3.0343905091e-02    1.0234344531e+05
    3.0360495672e-02    1.0234486719e+05
    3.0377071351e-02    1.0234618750e+05
    3.0393628404e-02    1.0235241406e+05
    3.0410168692e-02    1.0235908594e+05
    3.0426690355e-02    1.0236064844e+05
    3.0443195254e-02    1.0236211719e+05
    3.0459685251e-02    1.0236134375e+05
    3.0476156622e-02    1.0236482031e+05
    3.0492611229e-02    1.0236660156e+05
    3.0509050936e-02    1.0236878906e+05
    3.0525473878e-02    1.0237043750e+05
    3.0541881919e-02    1.0237238281e+05
    3.0558273196e-02    1.0237494531e+05
    3.0574647710e-02    1.0236746875e+05
    3.0591005459e-02    1.0236952344e+05
    3.0607348308e-02    1.0237171875e+05
    3.0623674393e-02    1.0237314844e+05
    3.0639985576e-02    1.0236994531e+05
    3.0656279996e-02    1.0236733594e+05
    3.0672557652e-02    1.0236896094e+05
    3.0688818544e-02    1.0237549219e+05
    3.0705062672e-02    1.0237731250e+05
    3.0721291900e-02    1.0237493750e+05
    3.0737506226e-02    1.0237699219e+05
    3.0753703788e-02    1.0237941406e+05
    3.0769886449e-02    1.0238221094e+05
    3.0786054209e-02    1.0238472656e+05
    3.0802207068e-02    1.0238752344e+05
    3.0818343163e-02    1.0239002344e+05
    3.0834466219e-02    1.0239046094e+05
    3.0850572512e-02    1.0239064844e+05
    3.0866663903e-02    1.0239737500e+05
    3.0882738531e-02    1.0239966406e+05
    3.0898798257e-02    1.0239946094e+05
    3.0914843082e-02    1.0239974219e+05
    3.0930871144e-02    1.0240583594e+05
    3.0946886167e-02    1.0240335156e+05
    3.0962884426e-02    1.0240142969e+05
    3.0978867784e-02    1.0240302344e+05
    3.0994836241e-02    1.0240515625e+05
    3.1010789797e-02    1.0240700000e+05
    3.1026728451e-02    1.0240874219e+05
    3.1042650342e-02    1.0241000781e+05
    3.1058559194e-02    1.0240210156e+05
    3.1074455008e-02    1.0240324219e+05
    3.1090334058e-02    1.0240428906e+05
    3.1106200069e-02    1.0240524219e+05
    3.1122051179e-02    1.0240635156e+05
    3.1137887388e-02    1.0240209375e+05
    3.1153710559e-02    1.0239796094e+05
    3.1169516966e-02    1.0239790625e+05
    3.1185310334e-02    1.0240739844e+05
    3.1201090664e-02    1.0240771094e+05
    3.1216854230e-02    1.0240315625e+05
    3.1232602894e-02    1.0239847656e+05
    3.1248336658e-02    1.0239853906e+05
    3.1264055520e-02    1.0240782031e+05
    3.1279761344e-02    1.0240832031e+05
    3.1295452267e-02    1.0240878125e+05
    3.1311132014e-02    1.0240689844e+05
    3.1326796860e-02    1.0240982031e+05
    3.1342446804e-02    1.0241053906e+05
    3.1358085573e-02    1.0241152344e+05
    3.1373709440e-02    1.0241292969e+05
    3.1389318407e-02    1.0241928906e+05
    3.1404916197e-02    1.0242615625e+05
    3.1420499086e-02    1.0242884375e+05
    3.1436067075e-02    1.0244141406e+05
    3.1451620162e-02    1.0244417969e+05
    3.1467158347e-02    1.0245242969e+05
    3.1482685357e-02    1.0245803125e+05
    3.1498193741e-02    1.0246363281e+05
    3.1513694674e-02    1.0246644531e+05
    3.1529176980e-02    1.0246674219e+05
    3.1544648111e-02    1.0247177344e+05
    3.1560108066e-02    1.0247422656e+05
    3.1575553119e-02    1.0247652344e+05
    3.1590986997e-02    1.0248147656e+05
    3.1606405973e-02    1.0248615625e+05
    3.1621813774e-02    1.0248653906e+05
    3.1637206674e-02    1.0248688281e+05
    3.1652588397e-02    1.0248853906e+05
    3.1667951494e-02    1.0248496094e+05
    3.1683307141e-02    1.0248311719e+05
    3.1698647887e-02    1.0247850000e+05
    3.1713977456e-02    1.0247597656e+05
    3.1729292125e-02    1.0247521094e+05
    3.1744595617e-02    1.0247393750e+05
    3.1759884208e-02    1.0247231250e+05
    3.1775161624e-02    1.0247077344e+05
    3.1790427864e-02    1.0246860156e+05
    3.1805675477e-02    1.0246161719e+05
    3.1820915639e-02    1.0245353125e+05
    3.1836140901e-02    1.0244952344e+05
    3.1851354986e-02    1.0244574219e+05
    3.1866557896e-02    1.0244199219e+05
    3.1881745905e-02    1.0243821094e+05
    3.1896922737e-02    1.0243002344e+05
    3.1912088394e-02    1.0242090625e+05
    3.1927239150e-02    1.0241721094e+05
    3.1942378730e-02    1.0241271094e+05
    3.1957507133e-02    1.0240549219e+05
    3.1972620636e-02    1.0239896875e+05
    3.1987726688e-02    1.0239453125e+05
    3.2002814114e-02    1.0239033594e+05
    3.2017890364e-02    1.0238646875e+05
    3.2032959163e-02    1.0238289844e+05
    3.2048013061e-02    1.0237997656e+05
    3.2063052058e-02    1.0237733594e+05
    3.2078083605e-02    1.0237519531e+05
    3.2093103975e-02    1.0237340625e+05
    3.2108109444e-02    1.0237727344e+05
    3.2123107463e-02    1.0238208594e+05
    3.2138090581e-02    1.0238821875e+05
    3.2153062522e-02    1.0239438281e+05
    3.2168023288e-02    1.0239696094e+05
    3.2182972878e-02    1.0240512500e+05
    3.2197911292e-02    1.0240925781e+05
    3.2212834805e-02    1.0241321094e+05
    3.2227750868e-02    1.0241827344e+05
    3.2242652029e-02    1.0242581250e+05
    3.2257542014e-02    1.0243812500e+05
    3.2272424549e-02    1.0244467969e+05
    3.2287292182e-02    1.0245535156e+05
    3.2302148640e-02    1.0246722656e+05
    3.2316997647e-02    1.0247421875e+05
    3.2331831753e-02    1.0248130469e+05
    3.2346658409e-02    1.0249112500e+05
    3.2361470163e-02    1.0250047656e+05
    3.2376270741e-02    1.0250300000e+05
    3.2391063869e-02    1.0250955469e+05
    3.2405842096e-02    1.0251814844e+05
    3.2420612872e-02    1.0252627344e+05
    3.2435368747e-02    1.0253216406e+05
    3.2450113446e-02    1.0253235156e+05
    3.2464850694e-02    1.0253747656e+05
    3.2479573041e-02    1.0254256250e+05
    3.2494287938e-02    1.0254237500e+05
    3.2508991659e-02    1.0254641406e+05
    3.2523684204e-02    1.0255053906e+05
    3.2538365573e-02    1.0255378906e+05
    3.2553035766e-02    1.0255209375e+05
    3.2567698509e-02    1.0255480469e+05
    3.2582346350e-02    1.0255675000e+05
    3.2596986741e-02    1.0254902344e+05
    3.2611619681e-02    1.0254968750e+05
    3.2626237720e-02    1.0254991406e+05
    3.2640848309e-02    1.0254552344e+05
    3.2655447721e-02    1.0254483594e+05
    3.2670035958e-02    1.0253899219e+05
    3.2684613019e-02    1.0253747656e+05
    3.2699178904e-02    1.0253114844e+05
    3.2713737339e-02    1.0252890625e+05
    3.2728284597e-02    1.0252697656e+05
    3.2742820680e-02    1.0252485156e+05
    3.2757349312e-02    1.0252044531e+05
    3.2771866769e-02    1.0251616406e+05
    3.2786373049e-02    1.0251414844e+05
    3.2800871879e-02    1.0251196094e+05
    3.2815355808e-02    1.0250963281e+05
    3.2829832286e-02    1.0250271094e+05
    3.2844301313e-02    1.0250046875e+05
    3.2858755440e-02    1.0249847656e+05
    3.2873202115e-02    1.0249685156e+05
    3.2887637615e-02    1.0249507031e+05
    3.2902065665e-02    1.0249433594e+05
    3.2916482538e-02    1.0250235156e+05
    3.2930891961e-02    1.0249197656e+05
    3.2945290208e-02    1.0249109375e+05
    3.2959677279e-02    1.0249291406e+05
    3.2974056900e-02    1.0249646094e+05
    3.2988425344e-02    1.0249328906e+05
    3.3002786338e-02    1.0249046094e+05
    3.3017136157e-02    1.0248996094e+05
    3.3031478524e-02    1.0249085156e+05
    3.3045809716e-02    1.0249228906e+05
    3.3060129732e-02    1.0249390625e+05
    3.3074442297e-02    1.0249131250e+05
    3.3088747412e-02    1.0249321094e+05
    3.3103041351e-02    1.0248778906e+05
    3.3117324114e-02    1.0249228125e+05
    3.3131599426e-02    1.0249228125e+05
    3.3145863563e-02    1.0249185156e+05
    3.3160120249e-02    1.0249169531e+05
    3.3174365759e-02    1.0249197656e+05
    3.3188603818e-02    1.0250121094e+05
    3.3202830702e-02    1.0250172656e+05
    3.3217050135e-02    1.0250231250e+05
    3.3231258392e-02    1.0250310156e+05
    3.3245459199e-02    1.0250110156e+05
    3.3259648830e-02    1.0249636719e+05
    3.3273831010e-02    1.0249375781e+05
    3.3288005739e-02    1.0249328125e+05
    3.3302169293e-02    1.0249274219e+05
    3.3316325396e-02    1.0249221094e+05
    3.3330474049e-02    1.0249178906e+05
    3.3344611526e-02    1.0249625781e+05
    3.3358741552e-02    1.0249602344e+05
    3.3372864127e-02    1.0249608594e+05
    3.3386975527e-02    1.0249131250e+05
    3.3401079476e-02    1.0249114844e+05
    3.3415172249e-02    1.0249058594e+05
    3.3429257572e-02    1.0249021094e+05
    3.3443335444e-02    1.0248981250e+05
    3.3457405865e-02    1.0248941406e+05
    3.3471468836e-02    1.0248934375e+05
    3.3485524356e-02    1.0248905469e+05
    3.3499568701e-02    1.0249325781e+05
    3.3513605595e-02    1.0248896875e+05
    3.3527631313e-02    1.0248888281e+05
    3.3541653305e-02    1.0249796094e+05
    3.3555664122e-02    1.0249812500e+05
    3.3569667488e-02    1.0249110156e+05
    3.3583663404e-02    1.0248903906e+05
    3.3597648144e-02    1.0248872656e+05
    3.3611625433e-02    1.0248928906e+05
    3.3625595272e-02    1.0249616406e+05
    3.3639557660e-02    1.0249894531e+05
    3.3653512597e-02    1.0249744531e+05
    3.3667460084e-02    1.0249357031e+05
    3.3681396395e-02    1.0249396094e+05
    3.3695328981e-02    1.0250178906e+05
    3.3709254116e-02    1.0250035156e+05
    3.3723168075e-02    1.0249852344e+05
    3.3737078309e-02    1.0250410156e+05
    3.3750977367e-02    1.0250260156e+05
    3.3764872700e-02    1.0250307031e+05
    3.3778760582e-02    1.0250049219e+05
    3.3792637289e-02    1.0250316406e+05
    3.3806510270e-02    1.0250542969e+05
    3.3820372075e-02    1.0250294531e+05
    3.3834230155e-02    1.0250053906e+05
    3.3848077059e-02    1.0250300000e+05
    3.3861916512e-02    1.0250062500e+05
    3.3875752240e-02    1.0250085156e+05
    3.3889576793e-02    1.0250352344e+05
    3.3903393894e-02    1.0250157031e+05
    3.3917203546e-02    1.0250138281e+05
    3.3931009471e-02    1.0250189844e+05
    3.3944804221e-02    1.0250183594e+05
    3.3958595246e-02    1.0250649219e+05
    3.3972378820e-02    1.0250664844e+05
    3.3986151218e-02    1.0249975781e+05
    3.3999919891e-02    1.0249658594e+05
    3.4013681114e-02    1.0249675781e+05
    3.4027434886e-02    1.0249887500e+05
    3.4041177481e-02    1.0249813281e+05
    3.4054916352e-02    1.0250018750e+05
    3.4068647772e-02    1.0249772656e+05
    3.4082375467e-02    1.0249496094e+05
    3.4096091986e-02    1.0249462500e+05
    3.4109804779e-02    1.0249427344e+05
    3.4123510122e-02    1.0249381250e+05
    3.4137208015e-02    1.0249275781e+05
    3.4150898457e-02    1.0249250000e+05
    3.4164581448e-02    1.0249161719e+05
    3.4178260714e-02    1.0249097656e+05
    3.4191932529e-02    1.0248975781e+05
    3.4205596894e-02    1.0248913281e+05
    3.4219253808e-02    1.0248885156e+05
    3.4232903272e-02    1.0248800000e+05
    3.4246545285e-02    1.0248780469e+05
    3.4260183573e-02    1.0248769531e+05
    3.4273810685e-02    1.0248769531e+05
    3.4287434071e-02    1.0248782031e+05
    3.4301050007e-02    1.0249702344e+05
    3.4314658493e-02    1.0249272656e+05
    3.4328263253e-02    1.0249014844e+05
    3.4341860563e-02    1.0248756250e+05
    3.4355450422e-02    1.0248699219e+05
    3.4369036555e-02    1.0248669531e+05
    3.4382611513e-02    1.0248638281e+05
    3.4396182746e-02    1.0249091406e+05
    3.4409742802e-02    1.0249072656e+05
    3.4423299134e-02    1.0248600781e+05
    3.4436848015e-02    1.0248578906e+05
    3.4450393170e-02    1.0248725781e+05
    3.4463927150e-02    1.0248478906e+05
    3.4477461129e-02    1.0248512500e+05
    3.4490987659e-02    1.0248489844e+05
    3.4504506737e-02    1.0248491406e+05
    3.4518022090e-02    1.0248435156e+05
    3.4531529993e-02    1.0248405469e+05
    3.4545030445e-02    1.0248377344e+05
    3.4558523446e-02    1.0248290625e+05
    3.4572008997e-02    1.0248485156e+05
    3.4585487098e-02    1.0248396094e+05
    3.4598957747e-02    1.0248133594e+05
    3.4612424672e-02    1.0248083594e+05
    3.4625884145e-02    1.0248005469e+05
    3.4639336169e-02    1.0247925781e+05
    3.4652780741e-02    1.0247852344e+05
    3.4666225314e-02    1.0247803906e+05
    3.4679658711e-02    1.0247784375e+05
    3.4693088382e-02    1.0247735156e+05
    3.4706510603e-02    1.0247650781e+05
    3.4719929099e-02    1.0247614844e+05
    3.4733340144e-02    1.0247512500e+05
    3.4746743739e-02    1.0247433594e+05
    3.4760143608e-02    1.0247350000e+05
    3.4773536026e-02    1.0247264844e+05
    3.4786924720e-02    1.0247172656e+05
    3.4800305963e-02    1.0247053906e+05
    3.4813679755e-02    1.0246985156e+05
    3.4827046096e-02    1.0246885156e+05
    3.4840408713e-02    1.0246784375e+05
    3.4853763878e-02    1.0246716406e+05
    3.4867111593e-02    1.0246652344e+05
    3.4880455583e-02    1.0246563281e+05
    3.4893795848e-02    1.0246483594e+05
    3.4907124937e-02    1.0246419531e+05
    3.4920454025e-02    1.0246372656e+05
    3.4933775663e-02    1.0246590625e+05
    3.4947093576e-02    1.0246593750e+05
    3.4960404038e-02    1.0247283594e+05
    3.4973710775e-02    1.0247238281e+05
    3.4987010062e-02    1.0246803906e+05
endcurve
