Curveplot
LS-DYNA keyword deck by LS-PrePost                          
Time
Pressure
Defined Connection
Pressure @ 22 #pts=1745
* Minval=     9.9018804688e+04 at time=         0.0130868377
* Maxval=     1.7072264062e+05 at time=         0.0061544459
    0.0000000000e+00    9.9998710938e+04
    3.3812357287e-05    9.9998710938e+04
    6.1326652940e-05    9.9998304688e+04
    8.9102875791e-05    9.9997781250e+04
    1.1682785407e-04    9.9999023438e+04
    1.4461828687e-04    9.9999273438e+04
    1.7236733402e-04    9.9999164062e+04
    2.0016246708e-04    1.0000885156e+05
    2.2795486439e-04    1.0000025781e+05
    2.5574557367e-04    1.0000080469e+05
    2.8353667585e-04    1.0000046875e+05
    3.1133697485e-04    9.9990351562e+04
    3.3912662184e-04    9.9999304688e+04
    3.6691734567e-04    9.9999523438e+04
    3.9470891352e-04    1.0000058594e+05
    4.2249175021e-04    1.0001030469e+05
    4.5027161832e-04    1.0000163281e+05
    4.7804549104e-04    1.0000031250e+05
    5.0581363030e-04    9.9996539062e+04
    5.3357944125e-04    1.0000096094e+05
    5.6134146871e-04    1.0000084375e+05
    5.8909942163e-04    1.0000008594e+05
    6.1685312539e-04    9.9995273438e+04
    6.4460188150e-04    9.9999664062e+04
    6.7234638846e-04    9.9999757812e+04
    7.0008635521e-04    1.0000477344e+05
    7.2782178177e-04    1.0000116406e+05
    7.5555208605e-04    1.0000138281e+05
    7.8327720985e-04    9.9997054688e+04
    8.1099680392e-04    1.0000096875e+05
    8.3871174138e-04    1.0000058594e+05
    8.6642213864e-04    1.0000047656e+05
    8.9412782108e-04    9.9999976562e+04
    9.2182843946e-04    9.9999726562e+04
    9.4952445943e-04    9.9999976562e+04
    9.7721535712e-04    1.0000039844e+05
    1.0049008997e-03    9.9990898438e+04
    1.0325826006e-03    9.9991476562e+04
    1.0602590628e-03    1.0001021094e+05
    1.0879321489e-03    1.0001158594e+05
    1.1155996472e-03    1.0001246875e+05
    1.1432634201e-03    1.0000064844e+05
    1.1709230021e-03    9.9990312500e+04
    1.1985785095e-03    9.9987000000e+04
    1.2262313394e-03    9.9999898438e+04
    1.2538790470e-03    1.0000850000e+05
    1.2815232622e-03    1.0000427344e+05
    1.3091630535e-03    1.0000221094e+05
    1.3368004002e-03    9.9994687500e+04
    1.3644339051e-03    1.0000594531e+05
    1.3920635683e-03    1.0002791406e+05
    1.4196902048e-03    1.0006222656e+05
    1.4473132323e-03    1.0010397656e+05
    1.4749332331e-03    1.0018831250e+05
    1.5025498578e-03    1.0032055469e+05
    1.5301633393e-03    1.0051591406e+05
    1.5577742597e-03    1.0077266406e+05
    1.5853822697e-03    1.0109835156e+05
    1.6129877185e-03    1.0147266406e+05
    1.6405890929e-03    1.0186739844e+05
    1.6681876732e-03    1.0225064844e+05
    1.6957829939e-03    1.0259771094e+05
    1.7233766848e-03    1.0287039844e+05
    1.7509678146e-03    1.0305024219e+05
    1.7785291420e-03    1.0313646094e+05
    1.8060547300e-03    1.0313459375e+05
    1.8335470231e-03    1.0305528906e+05
    1.8610082334e-03    1.0292103906e+05
    1.8884401070e-03    1.0274858594e+05
    1.9158447394e-03    1.0257052344e+05
    1.9432241097e-03    1.0241672656e+05
    1.9705800805e-03    1.0230232031e+05
    1.9979148638e-03    1.0222222656e+05
    2.0252298564e-03    1.0219800000e+05
    2.0525271539e-03    1.0221421875e+05
    2.0798076876e-03    1.0226902344e+05
    2.1070730872e-03    1.0234117969e+05
    2.1343247499e-03    1.0242125781e+05
    2.1615643054e-03    1.0248402344e+05
    2.1887931507e-03    1.0252453906e+05
    2.2160108201e-03    1.0254282031e+05
    2.2432196420e-03    1.0253756250e+05
    2.2704207804e-03    1.0251600000e+05
    2.2976147011e-03    1.0248309375e+05
    2.3248014040e-03    1.0244589844e+05
    2.3519827519e-03    1.0241115625e+05
    2.3791582789e-03    1.0239328906e+05
    2.4063293822e-03    1.0238464844e+05
    2.4334960617e-03    1.0238858594e+05
    2.4606597144e-03    1.0240331250e+05
    2.4878205732e-03    1.0241297656e+05
    2.5149781723e-03    1.0242453125e+05
    2.5421329774e-03    1.0243246875e+05
    2.5692859199e-03    1.0244703125e+05
    2.5964374654e-03    1.0244541406e+05
    2.6235871483e-03    1.0244650781e+05
    2.6507352013e-03    1.0243666406e+05
    2.6778825559e-03    1.0242531250e+05
    2.7050296776e-03    1.0242352344e+05
    2.7321761008e-03    1.0242077344e+05
    2.7593218256e-03    1.0242024219e+05
    2.7864677832e-03    1.0241922656e+05
    2.8136142064e-03    1.0242397656e+05
    2.8407603968e-03    1.0243043750e+05
    2.8679079842e-03    1.0244518750e+05
    2.8950548731e-03    1.0246194531e+05
    2.9222022276e-03    1.0248466406e+05
    2.9493502807e-03    1.0252307031e+05
    2.9764990322e-03    1.0257128906e+05
    3.0036487151e-03    1.0263709375e+05
    3.0307997949e-03    1.0272383594e+05
    3.0579508748e-03    1.0281188281e+05
    3.0851035845e-03    1.0291564844e+05
    3.1122572254e-03    1.0302556250e+05
    3.1394117977e-03    1.0312268750e+05
    3.1665677670e-03    1.0320467969e+05
    3.1937246677e-03    1.0325897656e+05
    3.2208829653e-03    1.0330240625e+05
    3.2480424270e-03    1.0331239844e+05
    3.2752046827e-03    1.0328797656e+05
    3.2952371985e-03    1.0325511719e+05
    3.3145032357e-03    1.0321562500e+05
    3.3336398192e-03    1.0318232031e+05
    3.3528339118e-03    1.0314753906e+05
    3.3720366191e-03    1.0310905469e+05
    3.3912549261e-03    1.0306433594e+05
    3.4104890656e-03    1.0302215625e+05
    3.4297339153e-03    1.0297377344e+05
    3.4486323129e-03    1.0292721875e+05
    3.4671388566e-03    1.0287802344e+05
    3.4854323603e-03    1.0282115625e+05
    3.5036695190e-03    1.0277044531e+05
    3.5219141282e-03    1.0270596094e+05
    3.5401545465e-03    1.0263788281e+05
    3.5583588760e-03    1.0257056250e+05
    3.5765271168e-03    1.0249996094e+05
    3.5946895368e-03    1.0243094531e+05
    3.6139658187e-03    1.0237390625e+05
    3.6330535077e-03    1.0231909375e+05
    3.6521453876e-03    1.0227816406e+05
    3.6699753255e-03    1.0225184375e+05
    3.6875614896e-03    1.0222547656e+05
    3.7050142419e-03    1.0220830469e+05
    3.7224807311e-03    1.0219146875e+05
    3.7400643341e-03    1.0217878906e+05
    3.7577797193e-03    1.0216883594e+05
    3.7755726371e-03    1.0216072656e+05
    3.7933769636e-03    1.0214789844e+05
    3.8111612666e-03    1.0214066406e+05
    3.8289318327e-03    1.0213503125e+05
    3.8467168342e-03    1.0212587500e+05
    3.8645383902e-03    1.0212561719e+05
    3.8824023213e-03    1.0211550781e+05
    3.9002960548e-03    1.0210012500e+05
    3.9182156324e-03    1.0208307031e+05
    3.9361710660e-03    1.0206577344e+05
    3.9541716687e-03    1.0204815625e+05
    3.9733103476e-03    1.0203064844e+05
    3.9924201556e-03    1.0201353906e+05
    4.0104058571e-03    1.0200556250e+05
    4.0284004062e-03    1.0198962500e+05
    4.0464363992e-03    1.0198377344e+05
    4.0656095371e-03    1.0197883594e+05
    4.0847789496e-03    1.0197478906e+05
    4.1039343923e-03    1.0196246094e+05
    4.1219722480e-03    1.0195974219e+05
    4.1400394402e-03    1.0194796875e+05
    4.1591953486e-03    1.0193586719e+05
    4.1784178466e-03    1.0192488281e+05
    4.1976389475e-03    1.0192332031e+05
    4.2168586515e-03    1.0191439844e+05
    4.2360713705e-03    1.0191072656e+05
    4.2552771047e-03    1.0189994531e+05
    4.2744791135e-03    1.0188914844e+05
    4.2936825193e-03    1.0187714844e+05
    4.3128933758e-03    1.0186336719e+05
    4.3321144767e-03    1.0185290625e+05
    4.3513495475e-03    1.0183893750e+05
    4.3705995195e-03    1.0182310156e+05
    4.3898657896e-03    1.0180941406e+05
    4.4091497548e-03    1.0178502344e+05
    4.4284537435e-03    1.0175768750e+05
    4.4477786869e-03    1.0172097656e+05
    4.4671236537e-03    1.0167528906e+05
    4.4864914380e-03    1.0162321875e+05
    4.5058806427e-03    1.0156077344e+05
    4.5252908021e-03    1.0149149219e+05
    4.5447219163e-03    1.0141622656e+05
    4.5641721226e-03    1.0133374219e+05
    4.5836409554e-03    1.0124308594e+05
    4.6031279489e-03    1.0114174219e+05
    4.6226321720e-03    1.0103692969e+05
    4.6421540901e-03    1.0092938281e+05
    4.6616927721e-03    1.0082459375e+05
    4.6812482178e-03    1.0072769531e+05
    4.7008208930e-03    1.0064617969e+05
    4.7204112634e-03    1.0057810156e+05
    4.7400193289e-03    1.0053191406e+05
    4.7596455552e-03    1.0051577344e+05
    4.7792894766e-03    1.0052618750e+05
    4.7989510931e-03    1.0056319531e+05
    4.8186304048e-03    1.0063500781e+05
    4.8383255489e-03    1.0072728906e+05
    4.8580355942e-03    1.0084500000e+05
    4.8777610064e-03    1.0098047656e+05
    4.8975008540e-03    1.0111747656e+05
    4.9172551371e-03    1.0125891406e+05
    4.9370229244e-03    1.0139596094e+05
    4.9568060786e-03    1.0152055469e+05
    4.9766036682e-03    1.0162810156e+05
    4.9964170903e-03    1.0171710156e+05
    5.0162458792e-03    1.0178244531e+05
    5.0360900350e-03    1.0182339844e+05
    5.0559476949e-03    1.0183187500e+05
    5.0758207217e-03    1.0181524219e+05
    5.0957072526e-03    1.0177364844e+05
    5.1156077534e-03    1.0170416406e+05
    5.1355226897e-03    1.0161044531e+05
    5.1554525271e-03    1.0149619531e+05
    5.1753963344e-03    1.0136558594e+05
    5.1953555085e-03    1.0122491406e+05
    5.2153295837e-03    1.0106985156e+05
    5.2353194915e-03    1.0091194531e+05
    5.2553247660e-03    1.0075427344e+05
    5.2753463387e-03    1.0060582031e+05
    5.2953832783e-03    1.0046231250e+05
    5.3154369816e-03    1.0032885156e+05
    5.3355065174e-03    1.0021030469e+05
    5.3555918857e-03    1.0010528906e+05
    5.3756926209e-03    1.0002283594e+05
    5.3958082572e-03    9.9959804688e+04
    5.4159392603e-03    9.9916960938e+04
    5.4360851645e-03    9.9892101562e+04
    5.4562464356e-03    9.9888148438e+04
    5.4764230736e-03    9.9893554688e+04
    5.4966160096e-03    9.9914664062e+04
    5.5168238468e-03    9.9944625000e+04
    5.5370470509e-03    9.9981742188e+04
    5.5572865531e-03    1.0002339844e+05
    5.5775423534e-03    1.0006886719e+05
    5.5978130549e-03    1.0011083594e+05
    5.6181000546e-03    1.0015210156e+05
    5.6384028867e-03    1.0019315625e+05
    5.6587206200e-03    1.0022743750e+05
    5.6790532544e-03    1.0025417969e+05
    5.6994007900e-03    1.0027440625e+05
    5.7197632268e-03    1.0028099219e+05
    5.7401410304e-03    1.0027925781e+05
    5.7605337352e-03    1.0026777344e+05
    5.7809422724e-03    1.0024607031e+05
    5.8013652451e-03    1.0022503125e+05
    5.8218040504e-03    1.0019991406e+05
    5.8422577567e-03    1.0017305469e+05
    5.8627268299e-03    1.0015652344e+05
    5.8832112700e-03    1.0016575000e+05
    5.9037101455e-03    1.0023861719e+05
    5.9242248535e-03    1.0045803906e+05
    5.9447535314e-03    1.0101668750e+05
    5.9641525149e-03    1.0230210156e+05
    5.9830932878e-03    1.0482453906e+05
    6.0020405799e-03    1.0926271094e+05
    6.0210367665e-03    1.1623642969e+05
    6.0400799848e-03    1.2584271094e+05
    6.0591096990e-03    1.3726325000e+05
    6.0781282373e-03    1.4882221875e+05
    6.0972142965e-03    1.5868020312e+05
    6.1162756756e-03    1.6565467188e+05
    6.1353649944e-03    1.6948310938e+05
    6.1544459313e-03    1.7072264062e+05
    6.1734300107e-03    1.7029032812e+05
    6.1924448237e-03    1.6904660938e+05
    6.2115197070e-03    1.6760400000e+05
    6.2306127511e-03    1.6628217188e+05
    6.2497169711e-03    1.6506395312e+05
    6.2688281760e-03    1.6381635938e+05
    6.2879407778e-03    1.6244109375e+05
    6.3070552424e-03    1.6088071875e+05
    6.3261794858e-03    1.5915432812e+05
    6.3453060575e-03    1.5732628125e+05
    6.3644465990e-03    1.5547376562e+05
    6.3835908659e-03    1.5364389062e+05
    6.4027444459e-03    1.5189879688e+05
    6.4219115302e-03    1.5024375000e+05
    6.4410855994e-03    1.4866915625e+05
    6.4602680504e-03    1.4714895312e+05
    6.4794607460e-03    1.4567842188e+05
    6.4986641519e-03    1.4423295312e+05
    6.5178787336e-03    1.4281785938e+05
    6.5371058881e-03    1.4145248438e+05
    6.5563363023e-03    1.4014775000e+05
    6.5755699761e-03    1.3892206250e+05
    6.5948092379e-03    1.3777228125e+05
    6.6140629351e-03    1.3669651562e+05
    6.6333152354e-03    1.3568637500e+05
    6.6525745206e-03    1.3473228125e+05
    6.6718445159e-03    1.3382865625e+05
    6.6911154427e-03    1.3296570312e+05
    6.7104012705e-03    1.3214976562e+05
    6.7296870984e-03    1.3137796875e+05
    6.7489854991e-03    1.3064050000e+05
    6.7682852969e-03    1.2994750000e+05
    6.7875892855e-03    1.2928567969e+05
    6.8069072440e-03    1.2864794531e+05
    6.8262196146e-03    1.2803362500e+05
    6.8455408327e-03    1.2744616406e+05
    6.8648783490e-03    1.2686497656e+05
    6.8842126057e-03    1.2629853906e+05
    6.9035501219e-03    1.2574107031e+05
    6.9228983484e-03    1.2520116406e+05
    6.9422605447e-03    1.2467887500e+05
    6.9616222754e-03    1.2417985156e+05
    6.9809844717e-03    1.2370925000e+05
    7.0003494620e-03    1.2326596875e+05
    7.0197195746e-03    1.2285802344e+05
    7.0390999317e-03    1.2247325781e+05
    7.0584909990e-03    1.2211696094e+05
    7.0778946392e-03    1.2178833594e+05
    7.0973108523e-03    1.2148294531e+05
    7.1167377755e-03    1.2119856250e+05
    7.1361698210e-03    1.2093325000e+05
    7.1556069888e-03    1.2068834375e+05
    7.1750483476e-03    1.2045417969e+05
    7.1944966912e-03    1.2022692969e+05
    7.2139529511e-03    1.2000640625e+05
    7.2334166616e-03    1.1978966406e+05
    7.2528840974e-03    1.1957185156e+05
    7.2723543271e-03    1.1936036719e+05
    7.2918278165e-03    1.1915150000e+05
    7.3113050312e-03    1.1894585156e+05
    7.3307845742e-03    1.1873442969e+05
    7.3502692394e-03    1.1853252344e+05
    7.3697618209e-03    1.1833947656e+05
    7.3892641813e-03    1.1815269531e+05
    7.4087800458e-03    1.1797077344e+05
    7.4282912537e-03    1.1780016406e+05
    7.4477996677e-03    1.1763891406e+05
    7.4673094787e-03    1.1747564844e+05
    7.4868267402e-03    1.1730931250e+05
    7.5063589029e-03    1.1715578906e+05
    7.5258887373e-03    1.1700108594e+05
    7.5454111211e-03    1.1684814844e+05
    7.5649353676e-03    1.1669861719e+05
    7.5844703242e-03    1.1655318750e+05
    7.6040057465e-03    1.1640868750e+05
    7.6235276647e-03    1.1626408594e+05
    7.6430505142e-03    1.1612692969e+05
    7.6625877991e-03    1.1599719531e+05
    7.6821087860e-03    1.1588139844e+05
    7.7016241848e-03    1.1576275000e+05
    7.7211544849e-03    1.1565730469e+05
    7.7406810597e-03    1.1555296094e+05
    7.7602043748e-03    1.1544894531e+05
    7.7797495760e-03    1.1534018750e+05
    7.7992938459e-03    1.1522003906e+05
    7.8188432381e-03    1.1509866406e+05
    7.8384252265e-03    1.1497097656e+05
    7.8580006957e-03    1.1483458594e+05
    7.8775910661e-03    1.1469137500e+05
    7.8972103074e-03    1.1454321094e+05
    7.9168286175e-03    1.1439032031e+05
    7.9364804551e-03    1.1423965625e+05
    7.9561360180e-03    1.1408627344e+05
    7.9758102074e-03    1.1393943750e+05
    7.9955114052e-03    1.1379987500e+05
    8.0152126029e-03    1.1366496094e+05
    8.0349491909e-03    1.1353868750e+05
    8.0546662211e-03    1.1342818750e+05
    8.0743944272e-03    1.1333115625e+05
    8.0941170454e-03    1.1324897656e+05
    8.1138620153e-03    1.1317872656e+05
    8.1336386502e-03    1.1311006250e+05
    8.1534720957e-03    1.1305502344e+05
    8.1733558327e-03    1.1299356250e+05
    8.1932730973e-03    1.1293884375e+05
    8.2132071257e-03    1.1287525000e+05
    8.2330890000e-03    1.1281165625e+05
    8.2529615611e-03    1.1274193750e+05
    8.2727763802e-03    1.1266433594e+05
    8.2926023751e-03    1.1258035156e+05
    8.3124246448e-03    1.1248103906e+05
    8.3322748542e-03    1.1237594531e+05
    8.3521194756e-03    1.1225841406e+05
    8.3719678223e-03    1.1214014844e+05
    8.3917891607e-03    1.1200856250e+05
    8.4116021171e-03    1.1186614844e+05
    8.4314141423e-03    1.1171384375e+05
    8.4512168542e-03    1.1155784375e+05
    8.4710381925e-03    1.1139285156e+05
    8.4908353165e-03    1.1122833594e+05
    8.5106678307e-03    1.1105109375e+05
    8.5304882377e-03    1.1087008594e+05
    8.5503393784e-03    1.1067411719e+05
    8.5699046031e-03    1.1047531250e+05
    8.5892248899e-03    1.1026822656e+05
    8.6083402857e-03    1.1005758594e+05
    8.6272666231e-03    1.0984860156e+05
    8.6460309103e-03    1.0963843750e+05
    8.6646731943e-03    1.0942342969e+05
    8.6832325906e-03    1.0920739844e+05
    8.7017398328e-03    1.0898752344e+05
    8.7202098221e-03    1.0876439844e+05
    8.7386453524e-03    1.0854347656e+05
    8.7570473552e-03    1.0832346875e+05
    8.7753897533e-03    1.0811574219e+05
    8.7936492637e-03    1.0791222656e+05
    8.8118780404e-03    1.0772694531e+05
    8.8300397620e-03    1.0755053906e+05
    8.8481390849e-03    1.0738735156e+05
    8.8662039489e-03    1.0723403906e+05
    8.8842641562e-03    1.0709528125e+05
    8.9023411274e-03    1.0696939844e+05
    8.9204348624e-03    1.0685471875e+05
    8.9385388419e-03    1.0675365625e+05
    8.9566456154e-03    1.0666153906e+05
    8.9747514576e-03    1.0658722656e+05
    8.9928600937e-03    1.0652436719e+05
    9.0109808370e-03    1.0646666406e+05
    9.0291155502e-03    1.0642841406e+05
    9.0472688898e-03    1.0639484375e+05
    9.0654399246e-03    1.0638549219e+05
    9.0836230665e-03    1.0637624219e+05
    9.1018192470e-03    1.0638364844e+05
    9.1200266033e-03    1.0639153125e+05
    9.1382460669e-03    1.0640458594e+05
    9.1564757749e-03    1.0641672656e+05
    9.1747231781e-03    1.0642596875e+05
    9.1929892078e-03    1.0643430469e+05
    9.2112747952e-03    1.0644214844e+05
    9.2295790091e-03    1.0644278906e+05
    9.2479009181e-03    1.0644734375e+05
    9.2662386596e-03    1.0644552344e+05
    9.2845931649e-03    1.0644364844e+05
    9.3029672280e-03    1.0643227344e+05
    9.3213599175e-03    1.0641697656e+05
    9.3397712335e-03    1.0639008594e+05
    9.3582011759e-03    1.0636146094e+05
    9.3766497448e-03    1.0632777344e+05
    9.3951150775e-03    1.0629128906e+05
    9.4135999680e-03    1.0624178906e+05
    9.4321016222e-03    1.0619452344e+05
    9.4506228343e-03    1.0614910156e+05
    9.4691645354e-03    1.0610333594e+05
    9.4877239317e-03    1.0605077344e+05
    9.5063010231e-03    1.0600959375e+05
    9.5248948783e-03    1.0596219531e+05
    9.5435054973e-03    1.0590846094e+05
    9.5621328801e-03    1.0585635156e+05
    9.5807760954e-03    1.0581050781e+05
    9.5994332805e-03    1.0576263281e+05
    9.6181081608e-03    1.0571715625e+05
    9.6367979422e-03    1.0567702344e+05
    9.6555035561e-03    1.0564315625e+05
    9.6742231399e-03    1.0561199219e+05
    9.6929576248e-03    1.0558496875e+05
    9.7117051482e-03    1.0556047656e+05
    9.7304685041e-03    1.0554033594e+05
    9.7492448986e-03    1.0552200000e+05
    9.7680361941e-03    1.0550672656e+05
    9.7868405282e-03    1.0549146875e+05
    9.8056588322e-03    1.0547884375e+05
    9.8244920373e-03    1.0545964844e+05
    9.8433364183e-03    1.0543953906e+05
    9.8621929064e-03    1.0540660156e+05
    9.8810633644e-03    1.0537209375e+05
    9.8999459296e-03    1.0533847656e+05
    9.9188406020e-03    1.0530364844e+05
    9.9377483130e-03    1.0527063281e+05
    9.9566690624e-03    1.0523084375e+05
    9.9756028503e-03    1.0518961719e+05
    9.9945487455e-03    1.0514928906e+05
    1.0013507679e-02    1.0510782031e+05
    1.0032479651e-02    1.0506249219e+05
    1.0051463731e-02    1.0501658594e+05
    1.0070459917e-02    1.0497058594e+05
    1.0089469142e-02    1.0492397656e+05
    1.0108492337e-02    1.0488306250e+05
    1.0127528571e-02    1.0483789844e+05
    1.0146577843e-02    1.0477953906e+05
    1.0165639222e-02    1.0472860156e+05
    1.0184712708e-02    1.0467083594e+05
    1.0203798302e-02    1.0459678906e+05
    1.0222896002e-02    1.0452446094e+05
    1.0242006741e-02    1.0444296094e+05
    1.0261129588e-02    1.0435114844e+05
    1.0280264542e-02    1.0425575781e+05
    1.0299413465e-02    1.0415924219e+05
    1.0318575427e-02    1.0405377344e+05
    1.0337748565e-02    1.0395192969e+05
    1.0356934741e-02    1.0385244531e+05
    1.0376133956e-02    1.0376280469e+05
    1.0395346209e-02    1.0367868750e+05
    1.0414571501e-02    1.0360330469e+05
    1.0433809832e-02    1.0354363281e+05
    1.0453061201e-02    1.0350133594e+05
    1.0472324677e-02    1.0346962500e+05
    1.0491601191e-02    1.0344792969e+05
    1.0510892607e-02    1.0343914844e+05
    1.0530196130e-02    1.0343428906e+05
    1.0549513623e-02    1.0342441406e+05
    1.0568842292e-02    1.0341305469e+05
    1.0588183999e-02    1.0339482031e+05
    1.0607538745e-02    1.0336314844e+05
    1.0626907460e-02    1.0332535156e+05
    1.0646289214e-02    1.0327818750e+05
    1.0665684007e-02    1.0321950781e+05
    1.0685092770e-02    1.0316002344e+05
    1.0704516433e-02    1.0309335156e+05
    1.0723951273e-02    1.0302971875e+05
    1.0743400082e-02    1.0296633594e+05
    1.0762862861e-02    1.0290907031e+05
    1.0782338679e-02    1.0286217969e+05
    1.0801829398e-02    1.0281978125e+05
    1.0821334086e-02    1.0278862500e+05
    1.0840852745e-02    1.0276103906e+05
    1.0860386305e-02    1.0273388281e+05
    1.0879932903e-02    1.0270941406e+05
    1.0899493471e-02    1.0267871094e+05
    1.0919069871e-02    1.0265053125e+05
    1.0938662104e-02    1.0262213281e+05
    1.0958270170e-02    1.0259039844e+05
    1.0977892205e-02    1.0255408594e+05
    1.0997531936e-02    1.0252710156e+05
    1.1017187499e-02    1.0249552344e+05
    1.1036860757e-02    1.0247441406e+05
    1.1056551710e-02    1.0245430469e+05
    1.1076259427e-02    1.0242971094e+05
    1.1095987633e-02    1.0240462500e+05
    1.1115733534e-02    1.0237546094e+05
    1.1135498993e-02    1.0233590625e+05
    1.1155283079e-02    1.0229442969e+05
    1.1175086722e-02    1.0225147656e+05
    1.1194912717e-02    1.0220669531e+05
    1.1214758269e-02    1.0216014844e+05
    1.1234625243e-02    1.0211191406e+05
    1.1254511774e-02    1.0206281250e+05
    1.1274418794e-02    1.0201991406e+05
    1.1294347234e-02    1.0197181250e+05
    1.1314296164e-02    1.0192403125e+05
    1.1334266514e-02    1.0188141406e+05
    1.1354257353e-02    1.0184118750e+05
    1.1374268681e-02    1.0179702344e+05
    1.1394302361e-02    1.0175892969e+05
    1.1414355598e-02    1.0172016406e+05
    1.1434430256e-02    1.0168321094e+05
    1.1454525404e-02    1.0165060156e+05
    1.1474640109e-02    1.0162572656e+05
    1.1494777165e-02    1.0160206250e+05
    1.1514934711e-02    1.0157542969e+05
    1.1535113677e-02    1.0155853906e+05
    1.1555313133e-02    1.0154266406e+05
    1.1575534008e-02    1.0153385156e+05
    1.1595774442e-02    1.0153225781e+05
    1.1616035365e-02    1.0154549219e+05
    1.1636316776e-02    1.0157924219e+05
    1.1656619608e-02    1.0163575781e+05
    1.1676942930e-02    1.0173022656e+05
    1.1697287671e-02    1.0187652344e+05
    1.1717652902e-02    1.0208174219e+05
    1.1738038622e-02    1.0237221094e+05
    1.1758443899e-02    1.0276471094e+05
    1.1778870597e-02    1.0329050781e+05
    1.1799318716e-02    1.0396114844e+05
    1.1819788255e-02    1.0479057031e+05
    1.1840280145e-02    1.0577933594e+05
    1.1860790662e-02    1.0689616406e+05
    1.1881321669e-02    1.0808410156e+05
    1.1901874095e-02    1.0927152344e+05
    1.1922447011e-02    1.1036414844e+05
    1.1943042278e-02    1.1127965625e+05
    1.1963658035e-02    1.1195742969e+05
    1.1984295212e-02    1.1234464844e+05
    1.2004952878e-02    1.1244771094e+05
    1.2025631964e-02    1.1229740625e+05
    1.2046331540e-02    1.1190975000e+05
    1.2067052536e-02    1.1136278906e+05
    1.2087795883e-02    1.1069397656e+05
    1.2108558789e-02    1.0997597656e+05
    1.2129344046e-02    1.0925686719e+05
    1.2150149792e-02    1.0858322656e+05
    1.2170976959e-02    1.0799096094e+05
    1.2191825546e-02    1.0749313281e+05
    1.2212695554e-02    1.0709003906e+05
    1.2233586982e-02    1.0675563281e+05
    1.2254500762e-02    1.0645978125e+05
    1.2275436893e-02    1.0615652344e+05
    1.2296394445e-02    1.0581428906e+05
    1.2317374349e-02    1.0541633594e+05
    1.2338375673e-02    1.0496478125e+05
    1.2359398417e-02    1.0445746875e+05
    1.2380442582e-02    1.0392500781e+05
    1.2401508167e-02    1.0338437500e+05
    1.2422595173e-02    1.0285075000e+05
    1.2443703599e-02    1.0234685156e+05
    1.2464834377e-02    1.0189477344e+05
    1.2485986575e-02    1.0150271094e+05
    1.2507158332e-02    1.0117386719e+05
    1.2528351508e-02    1.0090353125e+05
    1.2549565174e-02    1.0067840625e+05
    1.2570801191e-02    1.0048475781e+05
    1.2592058629e-02    1.0031227344e+05
    1.2613337487e-02    1.0015402344e+05
    1.2634636834e-02    1.0000587500e+05
    1.2655957602e-02    9.9875531250e+04
    1.2677297927e-02    9.9756617188e+04
    1.2698660605e-02    9.9653757812e+04
    1.2720043771e-02    9.9570773438e+04
    1.2741449289e-02    9.9504226562e+04
    1.2762876227e-02    9.9465648438e+04
    1.2784325518e-02    9.9446851562e+04
    1.2805794366e-02    9.9449492188e+04
    1.2827285565e-02    9.9464492188e+04
    1.2848797254e-02    9.9486101562e+04
    1.2870330364e-02    9.9503031250e+04
    1.2891885825e-02    9.9501351562e+04
    1.2913462706e-02    9.9482210938e+04
    1.2935061008e-02    9.9440656250e+04
    1.2956679799e-02    9.9376523438e+04
    1.2978320010e-02    9.9301335938e+04
    1.2999981642e-02    9.9212335938e+04
    1.3021663763e-02    9.9132031250e+04
    1.3043368235e-02    9.9064343750e+04
    1.3065092266e-02    9.9025593750e+04
    1.3086837716e-02    9.9018804688e+04
    1.3108605519e-02    9.9045804688e+04
    1.3130392879e-02    9.9097335938e+04
    1.3152201660e-02    9.9170351562e+04
    1.3174032792e-02    9.9245242188e+04
    1.3195885345e-02    9.9317320312e+04
    1.3217759319e-02    9.9373757812e+04
    1.3239653781e-02    9.9409867188e+04
    1.3261569664e-02    9.9419523438e+04
    1.3283506967e-02    9.9412960938e+04
    1.3305463828e-02    9.9390250000e+04
    1.3327440247e-02    9.9370523438e+04
    1.3349435292e-02    9.9349781250e+04
    1.3371448033e-02    9.9340273438e+04
    1.3393475674e-02    9.9348375000e+04
    1.3415516354e-02    9.9364835938e+04
    1.3437564485e-02    9.9391242188e+04
    1.3459613547e-02    9.9429835938e+04
    1.3481658883e-02    9.9468476562e+04
    1.3503690250e-02    9.9507476562e+04
    1.3525702059e-02    9.9541960938e+04
    1.3547683135e-02    9.9570937500e+04
    1.3569628820e-02    9.9596687500e+04
    1.3591531664e-02    9.9618210938e+04
    1.3613392599e-02    9.9647695312e+04
    1.3635210693e-02    9.9679023438e+04
    1.3656994328e-02    9.9711539062e+04
    1.3678749092e-02    9.9745820312e+04
    1.3700488023e-02    9.9785523438e+04
    1.3722228818e-02    9.9823789062e+04
    1.3743981719e-02    9.9869343750e+04
    1.3765762560e-02    9.9923718750e+04
    1.3787578791e-02    9.9985835938e+04
    1.3809437864e-02    1.0004457031e+05
    1.3831341639e-02    1.0011553906e+05
    1.3853288256e-02    1.0018007031e+05
    1.3875273056e-02    1.0023759375e+05
    1.3897285797e-02    1.0030591406e+05
    1.3919321820e-02    1.0036622656e+05
    1.3941374607e-02    1.0042814844e+05
    1.3963440433e-02    1.0048683594e+05
    1.3985517435e-02    1.0054053906e+05
    1.4007603750e-02    1.0060260156e+05
    1.4029704034e-02    1.0065533594e+05
    1.4051820152e-02    1.0070367969e+05
    1.4073957689e-02    1.0074527344e+05
    1.4096121304e-02    1.0078567969e+05
    1.4118315652e-02    1.0081871875e+05
    1.4140545391e-02    1.0084610156e+05
    1.4162814245e-02    1.0086841406e+05
    1.4185124077e-02    1.0088560156e+05
    1.4207473956e-02    1.0089483594e+05
    1.4229862019e-02    1.0089592969e+05
    1.4252286404e-02    1.0089562500e+05
    1.4274741523e-02    1.0089141406e+05
    1.4297228307e-02    1.0087974219e+05
    1.4319745824e-02    1.0086919531e+05
    1.4342290349e-02    1.0085652344e+05
    1.4364863746e-02    1.0084162500e+05
    1.4387467876e-02    1.0082361719e+05
    1.4410103671e-02    1.0080680469e+05
    1.4432771131e-02    1.0078103125e+05
    1.4455472119e-02    1.0075199219e+05
    1.4478209428e-02    1.0072015625e+05
    1.4500979334e-02    1.0069335156e+05
    1.4523783699e-02    1.0067039844e+05
    1.4546621591e-02    1.0064896094e+05
    1.4569494873e-02    1.0062771094e+05
    1.4592399821e-02    1.0061034375e+05
    1.4615339227e-02    1.0058817969e+05
    1.4638305642e-02    1.0057197656e+05
    1.4661304653e-02    1.0055880469e+05
    1.4684336260e-02    1.0055347656e+05
    1.4707398601e-02    1.0055511719e+05
    1.4730494469e-02    1.0055122656e+05
    1.4753622934e-02    1.0055308594e+05
    1.4776783995e-02    1.0055552344e+05
    1.4799979515e-02    1.0055915625e+05
    1.4823205769e-02    1.0056471094e+05
    1.4846466482e-02    1.0057039844e+05
    1.4869757928e-02    1.0057874219e+05
    1.4893081971e-02    1.0057727344e+05
    1.4916437678e-02    1.0057162500e+05
    1.4939822257e-02    1.0056978906e+05
    1.4963239431e-02    1.0057638281e+05
    1.4986685477e-02    1.0058622656e+05
    1.5010161325e-02    1.0060521094e+05
    1.5033668838e-02    1.0063060156e+05
    1.5057205223e-02    1.0065889844e+05
    1.5080772340e-02    1.0069642969e+05
    1.5104367398e-02    1.0074321094e+05
    1.5127992257e-02    1.0079392969e+05
    1.5151646920e-02    1.0085453125e+05
    1.5175330453e-02    1.0090966406e+05
    1.5199041925e-02    1.0096214844e+05
    1.5222782269e-02    1.0100596094e+05
    1.5246548690e-02    1.0104453906e+05
    1.5270343982e-02    1.0107432031e+05
    1.5294168144e-02    1.0109649219e+05
    1.5318016522e-02    1.0111246094e+05
    1.5341891907e-02    1.0111947656e+05
    1.5365792438e-02    1.0112306250e+05
    1.5389721841e-02    1.0112000781e+05
    1.5413676389e-02    1.0111665625e+05
    1.5437657945e-02    1.0110415625e+05
    1.5461664647e-02    1.0109797656e+05
    1.5485695563e-02    1.0109181250e+05
    1.5509752557e-02    1.0109785156e+05
    1.5533835627e-02    1.0110009375e+05
    1.5557944775e-02    1.0111103906e+05
    1.5582079068e-02    1.0112835156e+05
    1.5606240369e-02    1.0114253906e+05
    1.5630424023e-02    1.0116178906e+05
    1.5654634684e-02    1.0119102344e+05
    1.5678871423e-02    1.0121677344e+05
    1.5703132376e-02    1.0124346875e+05
    1.5727419406e-02    1.0127603906e+05
    1.5751728788e-02    1.0130156250e+05
    1.5776060522e-02    1.0132761719e+05
    1.5800418332e-02    1.0135736719e+05
    1.5824800357e-02    1.0138891406e+05
    1.5849204734e-02    1.0141391406e+05
    1.5873633325e-02    1.0143412500e+05
    1.5898084268e-02    1.0145485156e+05
    1.5922557563e-02    1.0146953906e+05
    1.5947058797e-02    1.0148557031e+05
    1.5971582383e-02    1.0150110156e+05
    1.5996130183e-02    1.0150589844e+05
    1.6020702198e-02    1.0150996094e+05
    1.6045298427e-02    1.0152156250e+05
    1.6069920734e-02    1.0152203906e+05
    1.6094569117e-02    1.0151840625e+05
    1.6119243577e-02    1.0151355469e+05
    1.6143942252e-02    1.0151512500e+05
    1.6168667004e-02    1.0151163281e+05
    1.6193419695e-02    1.0150510156e+05
    1.6218200326e-02    1.0149769531e+05
    1.6243007034e-02    1.0149202344e+05
    1.6267839819e-02    1.0149090625e+05
    1.6292702407e-02    1.0148547656e+05
    1.6317596659e-02    1.0148459375e+05
    1.6342513263e-02    1.0148535156e+05
    1.6367461532e-02    1.0148502344e+05
    1.6392435879e-02    1.0149032031e+05
    1.6417443752e-02    1.0150021094e+05
    1.6442479566e-02    1.0150603906e+05
    1.6467543319e-02    1.0152228906e+05
    1.6492636874e-02    1.0154021094e+05
    1.6517756507e-02    1.0155989844e+05
    1.6542907804e-02    1.0158517969e+05
    1.6568088904e-02    1.0161803906e+05
    1.6593271866e-02    1.0164863281e+05
    1.6618426889e-02    1.0168552344e+05
    1.6643559560e-02    1.0171408594e+05
    1.6668669879e-02    1.0174453125e+05
    1.6693757847e-02    1.0177533594e+05
    1.6718825325e-02    1.0179750000e+05
    1.6743874177e-02    1.0182878906e+05
    1.6768900678e-02    1.0184988281e+05
    1.6793908551e-02    1.0186164844e+05
    1.6818899661e-02    1.0188014844e+05
    1.6843874007e-02    1.0188910156e+05
    1.6868829727e-02    1.0188696094e+05
    1.6893770546e-02    1.0189191406e+05
    1.6918692738e-02    1.0188841406e+05
    1.6943598166e-02    1.0188784375e+05
    1.6968490556e-02    1.0187867969e+05
    1.6993366182e-02    1.0186339844e+05
    1.7018226907e-02    1.0185575000e+05
    1.7043072730e-02    1.0185540625e+05
    1.7067901790e-02    1.0185572656e+05
    1.7092714086e-02    1.0185075781e+05
    1.7117511481e-02    1.0184389844e+05
    1.7142292112e-02    1.0183603906e+05
    1.7167057842e-02    1.0182718750e+05
    1.7191808671e-02    1.0182743750e+05
    1.7216544598e-02    1.0183282031e+05
    1.7241263762e-02    1.0183806250e+05
    1.7265968025e-02    1.0183818750e+05
    1.7290659249e-02    1.0183734375e+05
    1.7315333709e-02    1.0183528125e+05
    1.7339993268e-02    1.0184264844e+05
    1.7364639789e-02    1.0184339844e+05
    1.7389267683e-02    1.0184865625e+05
    1.7413880676e-02    1.0184753125e+05
    1.7438478768e-02    1.0184634375e+05
    1.7463061959e-02    1.0185525000e+05
    1.7487626523e-02    1.0186165625e+05
    1.7512176186e-02    1.0187765625e+05
    1.7536709085e-02    1.0189752344e+05
    1.7561223358e-02    1.0193046094e+05
    1.7585720867e-02    1.0196391406e+05
    1.7610201612e-02    1.0200514844e+05
    1.7634663731e-02    1.0207025781e+05
    1.7659107223e-02    1.0214996875e+05
    1.7683532089e-02    1.0224392969e+05
    1.7707940191e-02    1.0235600000e+05
    1.7732329667e-02    1.0248667969e+05
    1.7756698653e-02    1.0263646094e+05
    1.7781050876e-02    1.0278635156e+05
    1.7805384472e-02    1.0293671875e+05
    1.7829699442e-02    1.0308185156e+05
    1.7853999510e-02    1.0321083594e+05
    1.7878280953e-02    1.0331963281e+05
    1.7902545631e-02    1.0339178906e+05
    1.7926793545e-02    1.0343102344e+05
    1.7951028422e-02    1.0342421875e+05
    1.7975246534e-02    1.0338135156e+05
    1.7999447882e-02    1.0329071094e+05
    1.8023636192e-02    1.0314950781e+05
    1.8047811463e-02    1.0297406250e+05
    1.8071975559e-02    1.0275678906e+05
    1.8096126616e-02    1.0249390625e+05
    1.8120266497e-02    1.0221772656e+05
    1.8144397065e-02    1.0193271094e+05
    1.8168520182e-02    1.0166121094e+05
    1.8192630261e-02    1.0140733594e+05
    1.8216732889e-02    1.0118207031e+05
    1.8240824342e-02    1.0099035156e+05
    1.8264908344e-02    1.0082325000e+05
    1.8288983032e-02    1.0069078125e+05
    1.8313048407e-02    1.0059074219e+05
    1.8337102607e-02    1.0052496875e+05
    1.8361147493e-02    1.0048844531e+05
    1.8385183066e-02    1.0048097656e+05
    1.8409207463e-02    1.0049053906e+05
    1.8433224410e-02    1.0051512500e+05
    1.8457230181e-02    1.0055771875e+05
    1.8481226638e-02    1.0061603906e+05
    1.8505210057e-02    1.0068716406e+05
    1.8529184163e-02    1.0076839844e+05
    1.8553148955e-02    1.0085202344e+05
    1.8577100709e-02    1.0092733594e+05
    1.8601041287e-02    1.0101308594e+05
    1.8624972552e-02    1.0109621875e+05
    1.8648892641e-02    1.0117699219e+05
    1.8672801554e-02    1.0125211719e+05
    1.8696699291e-02    1.0131935156e+05
    1.8720587716e-02    1.0137641406e+05
    1.8744463101e-02    1.0142908594e+05
    1.8768329173e-02    1.0146991406e+05
    1.8792184070e-02    1.0150659375e+05
    1.8816027790e-02    1.0154449219e+05
    1.8839860335e-02    1.0158258594e+05
    1.8863683566e-02    1.0162147656e+05
    1.8887493759e-02    1.0166550781e+05
    1.8911294639e-02    1.0171134375e+05
    1.8935086206e-02    1.0176288281e+05
    1.8958866596e-02    1.0181553125e+05
    1.8982635811e-02    1.0186964844e+05
    1.9006397575e-02    1.0193033594e+05
    1.9030146301e-02    1.0198816406e+05
    1.9053885713e-02    1.0204307031e+05
    1.9077615812e-02    1.0208827344e+05
    1.9101334736e-02    1.0213358594e+05
    1.9125042483e-02    1.0218353906e+05
    1.9148740917e-02    1.0222492969e+05
    1.9172428176e-02    1.0227072656e+05
    1.9196104258e-02    1.0231671094e+05
    1.9219771028e-02    1.0235211719e+05
    1.9243424758e-02    1.0238675000e+05
    1.9267069176e-02    1.0242471094e+05
    1.9290700555e-02    1.0246764844e+05
    1.9314322621e-02    1.0250589844e+05
    1.9337931648e-02    1.0253883594e+05
    1.9361529499e-02    1.0257842969e+05
    1.9385114312e-02    1.0260953125e+05
    1.9408687949e-02    1.0263702344e+05
    1.9432250410e-02    1.0266177344e+05
    1.9455801696e-02    1.0268825000e+05
    1.9479339942e-02    1.0270413281e+05
    1.9502865151e-02    1.0272662500e+05
    1.9526379183e-02    1.0273965625e+05
    1.9549878314e-02    1.0275658594e+05
    1.9573366269e-02    1.0276377344e+05
    1.9596841186e-02    1.0276844531e+05
    1.9620303065e-02    1.0276989844e+05
    1.9643751904e-02    1.0276752344e+05
    1.9667187706e-02    1.0276218750e+05
    1.9690606743e-02    1.0275322656e+05
    1.9714014605e-02    1.0273142969e+05
    1.9737409428e-02    1.0270993750e+05
    1.9760791212e-02    1.0268442969e+05
    1.9784159958e-02    1.0265041406e+05
    1.9807513803e-02    1.0261318750e+05
    1.9830854610e-02    1.0257321094e+05
    1.9854182377e-02    1.0252650781e+05
    1.9877497107e-02    1.0247542969e+05
    1.9900798798e-02    1.0242132031e+05
    1.9924087450e-02    1.0237358594e+05
    1.9947361201e-02    1.0232307031e+05
    1.9970623776e-02    1.0227056250e+05
    1.9993871450e-02    1.0221653906e+05
    2.0017107949e-02    1.0216131250e+05
    2.0040329546e-02    1.0211714844e+05
    2.0063538104e-02    1.0207916406e+05
    2.0086731762e-02    1.0204125781e+05
    2.0109914243e-02    1.0201015625e+05
    2.0133081824e-02    1.0198684375e+05
    2.0156236365e-02    1.0197010156e+05
    2.0179376006e-02    1.0195292969e+05
    2.0202504471e-02    1.0194440625e+05
    2.0225618035e-02    1.0195028125e+05
    2.0248720422e-02    1.0195653906e+05
    2.0271807909e-02    1.0196709375e+05
    2.0294882357e-02    1.0198584375e+05
    2.0317947492e-02    1.0201282031e+05
    2.0340997726e-02    1.0203896875e+05
    2.0364036784e-02    1.0206633594e+05
    2.0387060940e-02    1.0209047656e+05
    2.0410073921e-02    1.0211821875e+05
    2.0433073863e-02    1.0214796094e+05
    2.0456060767e-02    1.0217808594e+05
    2.0479036495e-02    1.0220266406e+05
    2.0501999184e-02    1.0223316406e+05
    2.0524948835e-02    1.0225641406e+05
    2.0547885448e-02    1.0227678906e+05
    2.0570809022e-02    1.0229547656e+05
    2.0593719557e-02    1.0230807031e+05
    2.0616617054e-02    1.0232036719e+05
    2.0639499649e-02    1.0232196094e+05
    2.0662369207e-02    1.0232846094e+05
    2.0685223863e-02    1.0232771094e+05
    2.0708063617e-02    1.0233014844e+05
    2.0730890334e-02    1.0232950781e+05
    2.0753700286e-02    1.0231710156e+05
    2.0776495337e-02    1.0230162500e+05
    2.0799275488e-02    1.0228584375e+05
    2.0822042599e-02    1.0226768750e+05
    2.0844791085e-02    1.0224421094e+05
    2.0867524669e-02    1.0222416406e+05
    2.0890241489e-02    1.0220183594e+05
    2.0912945271e-02    1.0217362500e+05
    2.0935632288e-02    1.0214438281e+05
    2.0958306268e-02    1.0211869531e+05
    2.0980965346e-02    1.0208716406e+05
    2.1003607661e-02    1.0206128125e+05
    2.1026238799e-02    1.0203083594e+05
    2.1048855036e-02    1.0200256250e+05
    2.1071458235e-02    1.0197006250e+05
    2.1094048396e-02    1.0194738281e+05
    2.1116625518e-02    1.0192610156e+05
    2.1139191464e-02    1.0191030469e+05
    2.1161744371e-02    1.0188862500e+05
    2.1184286103e-02    1.0187039844e+05
    2.1206818521e-02    1.0185510156e+05
    2.1229337901e-02    1.0184513281e+05
    2.1251846105e-02    1.0184096094e+05
    2.1274344996e-02    1.0182983594e+05
    2.1296832711e-02    1.0183010156e+05
    2.1319312975e-02    1.0183011719e+05
    2.1341778338e-02    1.0182666406e+05
    2.1364232525e-02    1.0183142969e+05
    2.1386675537e-02    1.0184287500e+05
    2.1409107372e-02    1.0185091406e+05
    2.1431528032e-02    1.0186035156e+05
    2.1453931928e-02    1.0186652344e+05
    2.1476324648e-02    1.0187262500e+05
    2.1498700604e-02    1.0188246094e+05
    2.1521063522e-02    1.0189250000e+05
    2.1543409675e-02    1.0190015625e+05
    2.1565740928e-02    1.0191086719e+05
    2.1588053554e-02    1.0191644531e+05
    2.1610351279e-02    1.0191847656e+05
    2.1632634103e-02    1.0192066406e+05
    2.1654898301e-02    1.0192347656e+05
    2.1677147597e-02    1.0192496094e+05
    2.1699378267e-02    1.0192593750e+05
    2.1721594036e-02    1.0192843750e+05
    2.1743793041e-02    1.0193092969e+05
    2.1765975282e-02    1.0193314844e+05
    2.1788140759e-02    1.0193456250e+05
    2.1810289472e-02    1.0193671875e+05
    2.1832419559e-02    1.0193874219e+05
    2.1854531020e-02    1.0193874219e+05
    2.1876627579e-02    1.0193389844e+05
    2.1898705512e-02    1.0194616406e+05
    2.1920768544e-02    1.0195097656e+05
    2.1942811087e-02    1.0196121094e+05
    2.1964838728e-02    1.0196847656e+05
    2.1986849606e-02    1.0198011719e+05
    2.2008845583e-02    1.0198844531e+05
    2.2030822933e-02    1.0199661719e+05
    2.2052785382e-02    1.0200517969e+05
    2.2074732929e-02    1.0201340625e+05
    2.2096665576e-02    1.0202410156e+05
    2.2118583322e-02    1.0203410156e+05
    2.2140489891e-02    1.0203603906e+05
    2.2162377834e-02    1.0204259375e+05
    2.2184254602e-02    1.0204821094e+05
    2.2206118330e-02    1.0204850000e+05
    2.2227969021e-02    1.0204775000e+05
    2.2249806672e-02    1.0204612500e+05
    2.2271629423e-02    1.0204453906e+05
    2.2293440998e-02    1.0204597656e+05
    2.2315241396e-02    1.0204247656e+05
    2.2337028757e-02    1.0204308594e+05
    2.2358803079e-02    1.0203813281e+05
    2.2380566224e-02    1.0203244531e+05
    2.2402318195e-02    1.0202665625e+05
    2.2424057126e-02    1.0202605469e+05
    2.2445784882e-02    1.0202581250e+05
    2.2467501462e-02    1.0203034375e+05
    2.2489206865e-02    1.0203618750e+05
    2.2510899231e-02    1.0203733594e+05
    2.2532582283e-02    1.0203943750e+05
    2.2554252297e-02    1.0205188281e+05
    2.2575911134e-02    1.0205537500e+05
    2.2597560659e-02    1.0206916406e+05
    2.2619199008e-02    1.0207450000e+05
    2.2640828043e-02    1.0207959375e+05
    2.2662445903e-02    1.0209428906e+05
    2.2684050724e-02    1.0210071875e+05
    2.2705646232e-02    1.0210678906e+05
    2.2727232426e-02    1.0211757031e+05
    2.2748809308e-02    1.0212816406e+05
    2.2770375013e-02    1.0213425000e+05
    2.2791929543e-02    1.0214005469e+05
    2.2813472897e-02    1.0213597656e+05
    2.2835006937e-02    1.0214077344e+05
    2.2856531665e-02    1.0214691406e+05
    2.2878047079e-02    1.0214805469e+05
    2.2899549454e-02    1.0214564844e+05
    2.2921044379e-02    1.0214321875e+05
    2.2942528129e-02    1.0213987500e+05
    2.2964000702e-02    1.0213560156e+05
    2.2985465825e-02    1.0213609375e+05
    2.3006917909e-02    1.0213309375e+05
    2.3028360680e-02    1.0212778906e+05
    2.3049792275e-02    1.0212469531e+05
    2.3071214557e-02    1.0211839844e+05
    2.3092625663e-02    1.0211203125e+05
    2.3114029318e-02    1.0211060156e+05
    2.3135419935e-02    1.0210953906e+05
    2.3156799376e-02    1.0210846094e+05
    2.3178169504e-02    1.0211487500e+05
    2.3199530318e-02    1.0211156250e+05
    2.3220879957e-02    1.0210615625e+05
    2.3242218420e-02    1.0211164844e+05
    2.3263547570e-02    1.0211312500e+05
    2.3284865543e-02    1.0210959375e+05
    2.3306174204e-02    1.0210567969e+05
    2.3327469826e-02    1.0210966406e+05
    2.3348756135e-02    1.0210890625e+05
    2.3370031267e-02    1.0211558594e+05
    2.3391297087e-02    1.0212335156e+05
    2.3412553594e-02    1.0213053125e+05
    2.3433798924e-02    1.0214269531e+05
    2.3455033079e-02    1.0215072656e+05
    2.3476256058e-02    1.0215989844e+05
    2.3497469723e-02    1.0216464844e+05
    2.3518672213e-02    1.0217846875e+05
    2.3539865389e-02    1.0219410156e+05
    2.3561049253e-02    1.0220971875e+05
    2.3582221940e-02    1.0223158594e+05
    2.3603385314e-02    1.0225088281e+05
    2.3624535650e-02    1.0226672656e+05
    2.3645676672e-02    1.0228772656e+05
    2.3666808382e-02    1.0230946875e+05
    2.3687927052e-02    1.0232197656e+05
    2.3709038273e-02    1.0234400000e+05
    2.3730138317e-02    1.0236708594e+05
    2.3751227185e-02    1.0238612500e+05
    2.3772306740e-02    1.0240524219e+05
    2.3793375120e-02    1.0240967969e+05
    2.3814432323e-02    1.0242296094e+05
    2.3835480213e-02    1.0242666406e+05
    2.3856516927e-02    1.0242883594e+05
    2.3877544329e-02    1.0242967969e+05
    2.3898560554e-02    1.0242296875e+05
    2.3919565603e-02    1.0241903906e+05
    2.3940561339e-02    1.0240772656e+05
    2.3961545900e-02    1.0239096094e+05
    2.3982519284e-02    1.0237371094e+05
    2.4003483355e-02    1.0234408594e+05
    2.4024436250e-02    1.0231188281e+05
    2.4045377970e-02    1.0226937500e+05
    2.4066310376e-02    1.0222716406e+05
    2.4087233469e-02    1.0218425781e+05
    2.4108145386e-02    1.0213808594e+05
    2.4129044265e-02    1.0209885156e+05
    2.4149935693e-02    1.0206287500e+05
    2.4170814082e-02    1.0202521094e+05
    2.4191683158e-02    1.0199112500e+05
    2.4212542921e-02    1.0196647656e+05
    2.4233391508e-02    1.0194684375e+05
    2.4254228920e-02    1.0193600000e+05
    2.4275057018e-02    1.0194053906e+05
    2.4295873940e-02    1.0195011719e+05
    2.4316681549e-02    1.0196914844e+05
    2.4337477982e-02    1.0198899219e+05
    2.4358265102e-02    1.0201777344e+05
    2.4379042909e-02    1.0204258594e+05
    2.4399809539e-02    1.0207513281e+05
    2.4420566857e-02    1.0210196094e+05
    2.4441312999e-02    1.0213558594e+05
    2.4462047964e-02    1.0216235156e+05
    2.4482775480e-02    1.0219089844e+05
    2.4503491819e-02    1.0221671094e+05
    2.4524198845e-02    1.0223900781e+05
    2.4544894695e-02    1.0225733594e+05
    2.4565581232e-02    1.0228033594e+05
    2.4586258456e-02    1.0229385156e+05
    2.4606924504e-02    1.0230785156e+05
    2.4627581239e-02    1.0231807031e+05
    2.4648228660e-02    1.0232640625e+05
    2.4668866768e-02    1.0233943750e+05
    2.4689495564e-02    1.0235231250e+05
    2.4710113183e-02    1.0236391406e+05
    2.4730721489e-02    1.0237139844e+05
    2.4751318619e-02    1.0237775781e+05
    2.4771906435e-02    1.0238897656e+05
    2.4792486802e-02    1.0239085156e+05
    2.4813055992e-02    1.0241093750e+05
    2.4833614007e-02    1.0242196094e+05
    2.4854162708e-02    1.0243082031e+05
    2.4874702096e-02    1.0243957031e+05
    2.4895232171e-02    1.0244553125e+05
    2.4915752932e-02    1.0245657031e+05
    2.4936262518e-02    1.0246768750e+05
    2.4956764653e-02    1.0247733594e+05
    2.4977253750e-02    1.0248071875e+05
    2.4997735396e-02    1.0248837500e+05
    2.5018205866e-02    1.0248803906e+05
    2.5038668886e-02    1.0249325000e+05
    2.5059120730e-02    1.0249380469e+05
    2.5079563260e-02    1.0249094531e+05
    2.5099996477e-02    1.0248809375e+05
    2.5120420381e-02    1.0249368750e+05
    2.5140833110e-02    1.0248936719e+05
    2.5161236525e-02    1.0248869531e+05
    2.5181630626e-02    1.0248780469e+05
    2.5202017277e-02    1.0248089844e+05
    2.5222390890e-02    1.0247272656e+05
    2.5242757052e-02    1.0246346875e+05
    2.5263112038e-02    1.0246221875e+05
    2.5283459574e-02    1.0245139844e+05
    2.5303795934e-02    1.0243988281e+05
    2.5324124843e-02    1.0243696875e+05
    2.5344440714e-02    1.0242375000e+05
    2.5364749134e-02    1.0241039844e+05
    2.5385048240e-02    1.0239503125e+05
    2.5405339897e-02    1.0238947656e+05
    2.5425618514e-02    1.0237391406e+05
    2.5445887819e-02    1.0236656250e+05
    2.5466147810e-02    1.0234978906e+05
    2.5486400351e-02    1.0233596094e+05
    2.5506639853e-02    1.0232197656e+05
    2.5526873767e-02    1.0230216406e+05
    2.5547094643e-02    1.0229228125e+05
    2.5567308068e-02    1.0228703906e+05
    2.5587510318e-02    1.0228259375e+05
    2.5607703254e-02    1.0227442969e+05
    2.5627886876e-02    1.0225788281e+05
    2.5648061186e-02    1.0224675000e+05
    2.5668226182e-02    1.0223775000e+05
    2.5688380003e-02    1.0223315625e+05
    2.5708526373e-02    1.0222978906e+05
    2.5728661567e-02    1.0222369531e+05
    2.5748789310e-02    1.0222257031e+05
    2.5768904015e-02    1.0221547656e+05
    2.5789011270e-02    1.0221291406e+05
    2.5809109211e-02    1.0221258594e+05
    2.5829195976e-02    1.0220735156e+05
    2.5849273428e-02    1.0220677344e+05
    2.5869343430e-02    1.0220738281e+05
    2.5889402255e-02    1.0221299219e+05
    2.5909451768e-02    1.0221899219e+05
    2.5929493830e-02    1.0221658594e+05
    2.5949522853e-02    1.0221884375e+05
    2.5969544426e-02    1.0221724219e+05
    2.5989556685e-02    1.0222039844e+05
    2.6009559631e-02    1.0222377344e+05
    2.6029553264e-02    1.0222817969e+05
    2.6049537584e-02    1.0223291406e+05
    2.6069512591e-02    1.0223796094e+05
    2.6089478284e-02    1.0223908594e+05
    2.6109432802e-02    1.0223986719e+05
    2.6129379869e-02    1.0225058594e+05
    2.6149315760e-02    1.0225149219e+05
    2.6169244200e-02    1.0225571875e+05
    2.6189163327e-02    1.0226211719e+05
    2.6209073141e-02    1.0226675781e+05
    2.6228975505e-02    1.0227368750e+05
    2.6248866692e-02    1.0228087500e+05
    2.6268748567e-02    1.0227424219e+05
    2.6288621128e-02    1.0228136719e+05
    2.6308484375e-02    1.0228583594e+05
    2.6328338310e-02    1.0229078906e+05
    2.6348184794e-02    1.0229288281e+05
    2.6368021965e-02    1.0229550781e+05
    2.6387847960e-02    1.0229777344e+05
    2.6407664642e-02    1.0230017969e+05
    2.6427472010e-02    1.0230233594e+05
    2.6447271928e-02    1.0230471875e+05
    2.6467062533e-02    1.0230717969e+05
    2.6486843824e-02    1.0230962500e+05
    2.6506617665e-02    1.0231239844e+05
    2.6526380330e-02    1.0231483594e+05
    2.6546133682e-02    1.0231774219e+05
    2.6565877721e-02    1.0232077344e+05
    2.6585612446e-02    1.0232637500e+05
    2.6605339721e-02    1.0232696094e+05
    2.6625057682e-02    1.0232989844e+05
    2.6644766331e-02    1.0233300781e+05
    2.6664465666e-02    1.0233089844e+05
    2.6684155688e-02    1.0232860156e+05
    2.6703836396e-02    1.0233843750e+05
    2.6723509654e-02    1.0234071875e+05
    2.6743173599e-02    1.0233996094e+05
    2.6762828231e-02    1.0233714844e+05
    2.6782475412e-02    1.0234128906e+05
    2.6802113280e-02    1.0234819531e+05
    2.6821739972e-02    1.0234352344e+05
    2.6841359213e-02    1.0234596875e+05
    2.6860967278e-02    1.0234763281e+05
    2.6880569756e-02    1.0234946094e+05
    2.6900164783e-02    1.0235046094e+05
    2.6919748634e-02    1.0234227344e+05
    2.6939325035e-02    1.0234325781e+05
    2.6958892122e-02    1.0234502344e+05
    2.6978449896e-02    1.0235540625e+05
    2.6997998357e-02    1.0235666406e+05
    2.7017539367e-02    1.0234877344e+05
    2.7037071064e-02    1.0234988281e+05
    2.7056595311e-02    1.0235085156e+05
    2.7076110244e-02    1.0235122656e+05
    2.7095617726e-02    1.0235197656e+05
    2.7115115896e-02    1.0236292969e+05
    2.7134604752e-02    1.0236490625e+05
    2.7154086158e-02    1.0235665625e+05
    2.7173558250e-02    1.0235777344e+05
    2.7193021029e-02    1.0235819531e+05
    2.7212476358e-02    1.0235860156e+05
    2.7231922373e-02    1.0235916406e+05
    2.7251357213e-02    1.0235921094e+05
    2.7270786464e-02    1.0235977344e+05
    2.7290204540e-02    1.0236027344e+05
    2.7309613302e-02    1.0235591406e+05
    2.7329014614e-02    1.0236013281e+05
    2.7348404750e-02    1.0236008594e+05
    2.7367785573e-02    1.0235935156e+05
    2.7387158945e-02    1.0235883594e+05
    2.7406521142e-02    1.0235906250e+05
    2.7425874025e-02    1.0235899219e+05
    2.7445219457e-02    1.0235950781e+05
    2.7464553714e-02    1.0235518750e+05
    2.7483878657e-02    1.0235331250e+05
    2.7503194287e-02    1.0235521875e+05
    2.7522502467e-02    1.0235924219e+05
    2.7541799471e-02    1.0235843750e+05
    2.7561087161e-02    1.0235747656e+05
    2.7580365539e-02    1.0235210156e+05
    2.7599634603e-02    1.0235158594e+05
    2.7618894354e-02    1.0235297656e+05
    2.7638144791e-02    1.0235490625e+05
    2.7657385916e-02    1.0235457031e+05
    2.7676619589e-02    1.0235424219e+05
    2.7695843950e-02    1.0235449219e+05
    2.7715058997e-02    1.0235421875e+05
    2.7734262869e-02    1.0235410156e+05
    2.7753459290e-02    1.0235444531e+05
    2.7772648260e-02    1.0235528125e+05
    2.7791827917e-02    1.0235564844e+05
    2.7810998261e-02    1.0235582031e+05
    2.7830159292e-02    1.0235863281e+05
    2.7849311009e-02    1.0235925781e+05
    2.7868455276e-02    1.0235783594e+05
    2.7887590230e-02    1.0235847656e+05
    2.7906717733e-02    1.0235878125e+05
    2.7925835922e-02    1.0235841406e+05
    2.7944946662e-02    1.0235821875e+05
    2.7964048088e-02    1.0235758594e+05
    2.7983140200e-02    1.0235733594e+05
    2.8002224863e-02    1.0235665625e+05
    2.8021300212e-02    1.0235528906e+05
    2.8040368110e-02    1.0235409375e+05
    2.8059426695e-02    1.0234346875e+05
    2.8078475967e-02    1.0234199219e+05
    2.8097519651e-02    1.0234024219e+05
    2.8116554022e-02    1.0234825781e+05
    2.8135580942e-02    1.0234639844e+05
    2.8154598549e-02    1.0234282031e+05
    2.8173606843e-02    1.0233407031e+05
    2.8192607686e-02    1.0233250781e+05
    2.8211599216e-02    1.0233096094e+05
    2.8230583295e-02    1.0233389844e+05
    2.8249559924e-02    1.0233250000e+05
    2.8268527240e-02    1.0232990625e+05
    2.8287487105e-02    1.0232358594e+05
    2.8306435794e-02    1.0232135156e+05
    2.8325378895e-02    1.0232135156e+05
    2.8344312683e-02    1.0232250000e+05
    2.8363237157e-02    1.0232605469e+05
    2.8382156044e-02    1.0231617969e+05
    2.8401065618e-02    1.0231577344e+05
    2.8419965878e-02    1.0231760156e+05
    2.8438858688e-02    1.0232471094e+05
    2.8457742184e-02    1.0232505469e+05
    2.8476616368e-02    1.0232547656e+05
    2.8495483100e-02    1.0232937500e+05
    2.8514338657e-02    1.0233739844e+05
    2.8533160686e-02    1.0234043750e+05
    2.8551930562e-02    1.0234819531e+05
    2.8570635244e-02    1.0235661719e+05
    2.8589271009e-02    1.0236046094e+05
    2.8607837856e-02    1.0235775000e+05
    2.8626350686e-02    1.0236453125e+05
    2.8644818813e-02    1.0236939844e+05
    2.8663259000e-02    1.0237874219e+05
    2.8681686148e-02    1.0238427344e+05
    2.8700113297e-02    1.0239005469e+05
    2.8718546033e-02    1.0239639844e+05
    2.8736986220e-02    1.0240786719e+05
    2.8755431995e-02    1.0241789844e+05
    2.8773877770e-02    1.0242428906e+05
    2.8792314231e-02    1.0242258594e+05
    2.8810730204e-02    1.0242840625e+05
    2.8829116374e-02    1.0243149219e+05
    2.8847465292e-02    1.0243627344e+05
    2.8865773231e-02    1.0244549219e+05
    2.8884036466e-02    1.0244550781e+05
    2.8902258724e-02    1.0244937500e+05
    2.8920443729e-02    1.0245355469e+05
    2.8938598931e-02    1.0245202344e+05
    2.8956729919e-02    1.0245444531e+05
    2.8974846005e-02    1.0245267969e+05
    2.8992949054e-02    1.0245474219e+05
    2.9011042789e-02    1.0245625000e+05
    2.9029129073e-02    1.0245291406e+05
    2.9047204182e-02    1.0245091406e+05
    2.9065268114e-02    1.0244916406e+05
    2.9083315283e-02    1.0244899219e+05
    2.9101338238e-02    1.0244889844e+05
    2.9119335115e-02    1.0244585156e+05
    2.9137304053e-02    1.0244286719e+05
    2.9155241325e-02    1.0244242969e+05
    2.9173148796e-02    1.0244191406e+05
    2.9191024601e-02    1.0243891406e+05
    2.9208874330e-02    1.0243558594e+05
    2.9226697981e-02    1.0243453125e+05
    2.9244501144e-02    1.0243308594e+05
    2.9262285680e-02    1.0243128125e+05
    2.9280053452e-02    1.0242971875e+05
    2.9297806323e-02    1.0242814844e+05
    2.9315544292e-02    1.0242659375e+05
    2.9333265498e-02    1.0242517969e+05
    2.9350971803e-02    1.0242403906e+05
    2.9368655756e-02    1.0242316406e+05
    2.9386319220e-02    1.0242227344e+05
    2.9403960332e-02    1.0242141406e+05
    2.9421577230e-02    1.0242250000e+05
    2.9439168051e-02    1.0242390625e+05
    2.9456734657e-02    1.0241871094e+05
    2.9474277049e-02    1.0241996094e+05
    2.9491795227e-02    1.0242596875e+05
    2.9509292915e-02    1.0242578906e+05
    2.9526771978e-02    1.0242542969e+05
    2.9544232413e-02    1.0242514844e+05
    2.9561674222e-02    1.0242485156e+05
    2.9579099268e-02    1.0242517969e+05
    2.9596509412e-02    1.0242547656e+05
    2.9613900930e-02    1.0242564844e+05
    2.9631273821e-02    1.0242593750e+05
    2.9648626223e-02    1.0242642969e+05
    2.9665958136e-02    1.0243608594e+05
    2.9683271423e-02    1.0243743750e+05
    2.9700560495e-02    1.0242993750e+05
    2.9717829078e-02    1.0243083594e+05
    2.9735075310e-02    1.0243146094e+05
    2.9752301052e-02    1.0242384375e+05
    2.9769508168e-02    1.0242127344e+05
    2.9786696658e-02    1.0242049219e+05
    2.9803866521e-02    1.0241943750e+05
    2.9821017757e-02    1.0241828906e+05
    2.9838152230e-02    1.0241725781e+05
    2.9855269939e-02    1.0240700000e+05
    2.9872370884e-02    1.0240564844e+05
    2.9889453202e-02    1.0239496875e+05
    2.9906518757e-02    1.0239313281e+05
    2.9923565686e-02    1.0239047656e+05
    2.9940593988e-02    1.0237888281e+05
    2.9957601801e-02    1.0237587500e+05
    2.9974590987e-02    1.0237230469e+05
    2.9991561547e-02    1.0235881250e+05
    3.0008511618e-02    1.0235433594e+05
    3.0025444925e-02    1.0234013281e+05
    3.0042361468e-02    1.0233458594e+05
    3.0059259385e-02    1.0231972656e+05
    3.0076142401e-02    1.0231361719e+05
    3.0093006790e-02    1.0230839844e+05
    3.0109854415e-02    1.0230277344e+05
    3.0126683414e-02    1.0230188281e+05
    3.0143497512e-02    1.0230168750e+05
    3.0160292983e-02    1.0229678125e+05
    3.0177071691e-02    1.0229640625e+05
    3.0193833634e-02    1.0229711719e+05
    3.0210576952e-02    1.0229802344e+05
    3.0227303505e-02    1.0229950781e+05
    3.0244011432e-02    1.0229675000e+05
    3.0260702595e-02    1.0230400781e+05
    3.0277376994e-02    1.0230489844e+05
    3.0294034630e-02    1.0231047656e+05
    3.0310675502e-02    1.0232012500e+05
    3.0327299610e-02    1.0232028906e+05
    3.0343905091e-02    1.0233021094e+05
    3.0360495672e-02    1.0233166406e+05
    3.0377071351e-02    1.0234247656e+05
    3.0393628404e-02    1.0234439844e+05
    3.0410168692e-02    1.0234846094e+05
    3.0426690355e-02    1.0235258594e+05
    3.0443195254e-02    1.0235696094e+05
    3.0459685251e-02    1.0236196094e+05
    3.0476156622e-02    1.0236453906e+05
    3.0492611229e-02    1.0236707031e+05
    3.0509050936e-02    1.0236521094e+05
    3.0525473878e-02    1.0237033594e+05
    3.0541881919e-02    1.0237068750e+05
    3.0558273196e-02    1.0236877344e+05
    3.0574647710e-02    1.0237185156e+05
    3.0591005459e-02    1.0237477344e+05
    3.0607348308e-02    1.0237771094e+05
    3.0623674393e-02    1.0238156250e+05
    3.0639985576e-02    1.0238437500e+05
    3.0656279996e-02    1.0238689844e+05
    3.0672557652e-02    1.0238025781e+05
    3.0688818544e-02    1.0238265625e+05
    3.0705062672e-02    1.0238500000e+05
    3.0721291900e-02    1.0238735156e+05
    3.0737506226e-02    1.0238962500e+05
    3.0753703788e-02    1.0239121094e+05
    3.0769886449e-02    1.0239260156e+05
    3.0786054209e-02    1.0238525000e+05
    3.0802207068e-02    1.0238715625e+05
    3.0818343163e-02    1.0238941406e+05
    3.0834466219e-02    1.0239416406e+05
    3.0850572512e-02    1.0240093750e+05
    3.0866663903e-02    1.0240349219e+05
    3.0882738531e-02    1.0240397656e+05
    3.0898798257e-02    1.0240271094e+05
    3.0914843082e-02    1.0240558594e+05
    3.0930871144e-02    1.0240824219e+05
    3.0946886167e-02    1.0241066406e+05
    3.0962884426e-02    1.0241340625e+05
    3.0978867784e-02    1.0241574219e+05
    3.0994836241e-02    1.0241818750e+05
    3.1010789797e-02    1.0242046094e+05
    3.1026728451e-02    1.0241752344e+05
    3.1042650342e-02    1.0241493750e+05
    3.1058559194e-02    1.0241635156e+05
    3.1074455008e-02    1.0241802344e+05
    3.1090334058e-02    1.0241732031e+05
    3.1106200069e-02    1.0241862500e+05
    3.1122051179e-02    1.0242271094e+05
    3.1137887388e-02    1.0242403125e+05
    3.1153710559e-02    1.0242599219e+05
    3.1169516966e-02    1.0242147656e+05
    3.1185310334e-02    1.0242986719e+05
    3.1201090664e-02    1.0243185156e+05
    3.1216854230e-02    1.0243360156e+05
    3.1232602894e-02    1.0243530469e+05
    3.1248336658e-02    1.0243225781e+05
    3.1264055520e-02    1.0243175781e+05
    3.1279761344e-02    1.0243771094e+05
    3.1295452267e-02    1.0244142969e+05
    3.1311132014e-02    1.0244255469e+05
    3.1326796860e-02    1.0244350781e+05
    3.1342446804e-02    1.0244477344e+05
    3.1358085573e-02    1.0244582031e+05
    3.1373709440e-02    1.0244928906e+05
    3.1389318407e-02    1.0245278906e+05
    3.1404916197e-02    1.0245903125e+05
    3.1420499086e-02    1.0246094531e+05
    3.1436067075e-02    1.0246253906e+05
    3.1451620162e-02    1.0246609375e+05
    3.1467158347e-02    1.0246757031e+05
    3.1482685357e-02    1.0246825781e+05
    3.1498193741e-02    1.0247132031e+05
    3.1513694674e-02    1.0247138281e+05
    3.1529176980e-02    1.0247141406e+05
    3.1544648111e-02    1.0247133594e+05
    3.1560108066e-02    1.0247078906e+05
    3.1575553119e-02    1.0247012500e+05
    3.1590986997e-02    1.0246900000e+05
    3.1606405973e-02    1.0246819531e+05
    3.1621813774e-02    1.0246208594e+05
    3.1637206674e-02    1.0245965625e+05
    3.1652588397e-02    1.0245190625e+05
    3.1667951494e-02    1.0244861719e+05
    3.1683307141e-02    1.0243610156e+05
    3.1698647887e-02    1.0243196094e+05
    3.1713977456e-02    1.0242768750e+05
    3.1729292125e-02    1.0242091406e+05
    3.1744595617e-02    1.0241388281e+05
    3.1759884208e-02    1.0240921094e+05
    3.1775161624e-02    1.0240855469e+05
    3.1790427864e-02    1.0239946875e+05
    3.1805675477e-02    1.0239491406e+05
    3.1820915639e-02    1.0238535156e+05
    3.1836140901e-02    1.0238028906e+05
    3.1851354986e-02    1.0237521094e+05
    3.1866557896e-02    1.0237339844e+05
    3.1881745905e-02    1.0237140625e+05
    3.1896922737e-02    1.0236780469e+05
    3.1912088394e-02    1.0236465625e+05
    3.1927239150e-02    1.0236200781e+05
    3.1942378730e-02    1.0236002344e+05
    3.1957507133e-02    1.0236318750e+05
    3.1972620636e-02    1.0236305469e+05
    3.1987726688e-02    1.0236346875e+05
    3.2002814114e-02    1.0236968750e+05
    3.2017890364e-02    1.0237171094e+05
    3.2032959163e-02    1.0237896094e+05
    3.2048013061e-02    1.0238235156e+05
    3.2063052058e-02    1.0238638281e+05
    3.2078083605e-02    1.0240028906e+05
    3.2093103975e-02    1.0240485156e+05
    3.2108109444e-02    1.0241758594e+05
    3.2123107463e-02    1.0242594531e+05
    3.2138090581e-02    1.0243321875e+05
    3.2153062522e-02    1.0244442969e+05
    3.2168023288e-02    1.0245700781e+05
    3.2182972878e-02    1.0246532031e+05
    3.2197911292e-02    1.0247846094e+05
    3.2212834805e-02    1.0248653906e+05
    3.2227750868e-02    1.0249441406e+05
    3.2242652029e-02    1.0250181250e+05
    3.2257542014e-02    1.0250922656e+05
    3.2272424549e-02    1.0251635156e+05
    3.2287292182e-02    1.0252255469e+05
    3.2302148640e-02    1.0252860156e+05
    3.2316997647e-02    1.0253474219e+05
    3.2331831753e-02    1.0253560156e+05
    3.2346658409e-02    1.0253619531e+05
    3.2361470163e-02    1.0254092969e+05
    3.2376270741e-02    1.0254516406e+05
    3.2391063869e-02    1.0254946094e+05
    3.2405842096e-02    1.0255084375e+05
    3.2420612872e-02    1.0255192969e+05
    3.2435368747e-02    1.0255503906e+05
    3.2450113446e-02    1.0255724219e+05
    3.2464850694e-02    1.0255908594e+05
    3.2479573041e-02    1.0255127344e+05
    3.2494287938e-02    1.0255246094e+05
    3.2508991659e-02    1.0255284375e+05
    3.2523684204e-02    1.0254805469e+05
    3.2538365573e-02    1.0254300781e+05
    3.2553035766e-02    1.0254253125e+05
    3.2567698509e-02    1.0253691406e+05
    3.2582346350e-02    1.0253508594e+05
    3.2596986741e-02    1.0253382031e+05
    3.2611619681e-02    1.0252932031e+05
    3.2626237720e-02    1.0252510156e+05
    3.2640848309e-02    1.0252369531e+05
    3.2655447721e-02    1.0252149219e+05
    3.2670035958e-02    1.0251553906e+05
    3.2684613019e-02    1.0251310156e+05
    3.2699178904e-02    1.0251083594e+05
    3.2713737339e-02    1.0250903906e+05
    3.2728284597e-02    1.0250691406e+05
    3.2742820680e-02    1.0250560156e+05
    3.2757349312e-02    1.0250344531e+05
    3.2771866769e-02    1.0250214844e+05
    3.2786373049e-02    1.0250058594e+05
    3.2800871879e-02    1.0249931250e+05
    3.2815355808e-02    1.0249778125e+05
    3.2829832286e-02    1.0249637500e+05
    3.2844301313e-02    1.0249508594e+05
    3.2858755440e-02    1.0249403125e+05
    3.2873202115e-02    1.0249352344e+05
    3.2887637615e-02    1.0249828906e+05
    3.2902065665e-02    1.0250208594e+05
    3.2916482538e-02    1.0250205469e+05
    3.2930891961e-02    1.0250035156e+05
    3.2945290208e-02    1.0249577344e+05
    3.2959677279e-02    1.0249340625e+05
    3.2974056900e-02    1.0249352344e+05
    3.2988425344e-02    1.0250300000e+05
    3.3002786338e-02    1.0250281250e+05
    3.3017136157e-02    1.0250324219e+05
    3.3031478524e-02    1.0250306250e+05
    3.3045809716e-02    1.0249810156e+05
    3.3060129732e-02    1.0249558594e+05
    3.3074442297e-02    1.0249985156e+05
    3.3088747412e-02    1.0249910156e+05
    3.3103041351e-02    1.0250069531e+05
    3.3117324114e-02    1.0249996094e+05
    3.3131599426e-02    1.0249685156e+05
    3.3145863563e-02    1.0249610156e+05
    3.3160120249e-02    1.0249514844e+05
    3.3174365759e-02    1.0249477344e+05
    3.3188603818e-02    1.0249655469e+05
    3.3202830702e-02    1.0249330469e+05
    3.3217050135e-02    1.0249297656e+05
    3.3231258392e-02    1.0249497656e+05
    3.3245459199e-02    1.0249430469e+05
    3.3259648830e-02    1.0249116406e+05
    3.3273831010e-02    1.0249035156e+05
    3.3288005739e-02    1.0248681250e+05
    3.3302169293e-02    1.0248858594e+05
    3.3316325396e-02    1.0248799219e+05
    3.3330474049e-02    1.0248766406e+05
    3.3344611526e-02    1.0248497656e+05
    3.3358741552e-02    1.0248700781e+05
    3.3372864127e-02    1.0248908594e+05
    3.3386975527e-02    1.0248847656e+05
    3.3401079476e-02    1.0248796875e+05
    3.3415172249e-02    1.0248784375e+05
    3.3429257572e-02    1.0248803906e+05
    3.3443335444e-02    1.0248806250e+05
    3.3457405865e-02    1.0248816406e+05
    3.3471468836e-02    1.0248839844e+05
    3.3485524356e-02    1.0248900000e+05
    3.3499568701e-02    1.0248943750e+05
    3.3513605595e-02    1.0249007031e+05
    3.3527631313e-02    1.0249147656e+05
    3.3541653305e-02    1.0249697656e+05
    3.3555664122e-02    1.0249816406e+05
    3.3569667488e-02    1.0250392969e+05
    3.3583663404e-02    1.0250503906e+05
    3.3597648144e-02    1.0250611719e+05
    3.3611625433e-02    1.0250650000e+05
    3.3625595272e-02    1.0250478906e+05
    3.3639557660e-02    1.0249814844e+05
    3.3653512597e-02    1.0249896875e+05
    3.3667460084e-02    1.0249931250e+05
    3.3681396395e-02    1.0250478906e+05
    3.3695328981e-02    1.0250524219e+05
    3.3709254116e-02    1.0250838281e+05
    3.3723168075e-02    1.0250478906e+05
    3.3737078309e-02    1.0250336719e+05
    3.3750977367e-02    1.0250421875e+05
    3.3764872700e-02    1.0250952344e+05
    3.3778760582e-02    1.0250547656e+05
    3.3792637289e-02    1.0250608594e+05
    3.3806510270e-02    1.0250658594e+05
    3.3820372075e-02    1.0250706250e+05
    3.3834230155e-02    1.0250713281e+05
    3.3848077059e-02    1.0250684375e+05
    3.3861916512e-02    1.0250730469e+05
    3.3875752240e-02    1.0250714844e+05
    3.3889576793e-02    1.0250716406e+05
    3.3903393894e-02    1.0250677344e+05
    3.3917203546e-02    1.0250605469e+05
    3.3931009471e-02    1.0250546094e+05
    3.3944804221e-02    1.0250240625e+05
    3.3958595246e-02    1.0250133594e+05
    3.3972378820e-02    1.0250281250e+05
    3.3986151218e-02    1.0250165625e+05
    3.3999919891e-02    1.0250134375e+05
    3.4013681114e-02    1.0249866406e+05
    3.4027434886e-02    1.0249774219e+05
    3.4041177481e-02    1.0249713281e+05
    3.4054916352e-02    1.0249913281e+05
    3.4068647772e-02    1.0249653906e+05
    3.4082375467e-02    1.0249814844e+05
    3.4096091986e-02    1.0249786719e+05
    3.4109804779e-02    1.0249535156e+05
    3.4123510122e-02    1.0249489844e+05
    3.4137208015e-02    1.0249700781e+05
    3.4150898457e-02    1.0249667969e+05
    3.4164581448e-02    1.0249666406e+05
    3.4178260714e-02    1.0249615625e+05
    3.4191932529e-02    1.0249566406e+05
    3.4205596894e-02    1.0249515625e+05
    3.4219253808e-02    1.0249499219e+05
    3.4232903272e-02    1.0249456250e+05
    3.4246545285e-02    1.0249477344e+05
    3.4260183573e-02    1.0249500000e+05
    3.4273810685e-02    1.0249471094e+05
    3.4287434071e-02    1.0249471094e+05
    3.4301050007e-02    1.0249439844e+05
    3.4314658493e-02    1.0249403906e+05
    3.4328263253e-02    1.0249390625e+05
    3.4341860563e-02    1.0249312500e+05
    3.4355450422e-02    1.0249285156e+05
    3.4369036555e-02    1.0249284375e+05
    3.4382611513e-02    1.0249222656e+05
    3.4396182746e-02    1.0249185156e+05
    3.4409742802e-02    1.0249139844e+05
    3.4423299134e-02    1.0249122656e+05
    3.4436848015e-02    1.0249039844e+05
    3.4450393170e-02    1.0248766406e+05
    3.4463927150e-02    1.0248696875e+05
    3.4477461129e-02    1.0248590625e+05
    3.4490987659e-02    1.0248749219e+05
    3.4504506737e-02    1.0248640625e+05
    3.4518022090e-02    1.0248528906e+05
    3.4531529993e-02    1.0248416406e+05
    3.4545030445e-02    1.0248333594e+05
    3.4558523446e-02    1.0248186719e+05
    3.4572008997e-02    1.0248125781e+05
    3.4585487098e-02    1.0248039844e+05
    3.4598957747e-02    1.0247947656e+05
    3.4612424672e-02    1.0247861719e+05
    3.4625884145e-02    1.0247843750e+05
    3.4639336169e-02    1.0247777344e+05
    3.4652780741e-02    1.0247717969e+05
    3.4666225314e-02    1.0247696094e+05
    3.4679658711e-02    1.0247652344e+05
    3.4693088382e-02    1.0247618750e+05
    3.4706510603e-02    1.0247556250e+05
    3.4719929099e-02    1.0247503906e+05
    3.4733340144e-02    1.0247508594e+05
    3.4746743739e-02    1.0247481250e+05
    3.4760143608e-02    1.0247428906e+05
    3.4773536026e-02    1.0247403125e+05
    3.4786924720e-02    1.0247400000e+05
    3.4800305963e-02    1.0247363281e+05
    3.4813679755e-02    1.0247289844e+05
    3.4827046096e-02    1.0247264844e+05
    3.4840408713e-02    1.0247231250e+05
    3.4853763878e-02    1.0247158594e+05
    3.4867111593e-02    1.0247072656e+05
    3.4880455583e-02    1.0246782031e+05
    3.4893795848e-02    1.0246221875e+05
    3.4907124937e-02    1.0246782031e+05
    3.4920454025e-02    1.0246638281e+05
    3.4933775663e-02    1.0246585156e+05
    3.4947093576e-02    1.0246480469e+05
    3.4960404038e-02    1.0246383594e+05
    3.4973710775e-02    1.0246328906e+05
    3.4987010062e-02    1.0246290625e+05
endcurve
