Curveplot
LS-DYNA keyword deck by LS-PrePost                          
Time
Pressure
Defined Connection
Pressure @ 23 #pts=1745
* Minval=     9.9142031250e+04 at time=         0.0130868377
* Maxval=     1.7018101562e+05 at time=         0.0061734300
    0.0000000000e+00    9.9998125000e+04
    3.3812357287e-05    9.9998125000e+04
    6.1326652940e-05    9.9998335938e+04
    8.9102875791e-05    9.9998414062e+04
    1.1682785407e-04    9.9997968750e+04
    1.4461828687e-04    9.9999343750e+04
    1.7236733402e-04    9.9999312500e+04
    2.0016246708e-04    1.0000903906e+05
    2.2795486439e-04    9.9999875000e+04
    2.5574557367e-04    1.0000042969e+05
    2.8353667585e-04    1.0000074219e+05
    3.1133697485e-04    9.9991320312e+04
    3.3912662184e-04    1.0000030469e+05
    3.6691734567e-04    9.9999351562e+04
    3.9470891352e-04    9.9999812500e+04
    4.2249175021e-04    1.0001003906e+05
    4.5027161832e-04    1.0000167969e+05
    4.7804549104e-04    1.0000122656e+05
    5.0581363030e-04    9.9991804688e+04
    5.3357944125e-04    1.0000014844e+05
    5.6134146871e-04    1.0000103906e+05
    5.8909942163e-04    1.0000013281e+05
    6.1685312539e-04    1.0000074219e+05
    6.4460188150e-04    1.0000075781e+05
    6.7234638846e-04    1.0000082031e+05
    7.0008635521e-04    1.0000067969e+05
    7.2782178177e-04    1.0000027344e+05
    7.5555208605e-04    9.9999468750e+04
    7.8327720985e-04    9.9999445312e+04
    8.1099680392e-04    1.0000042969e+05
    8.3871174138e-04    1.0000125000e+05
    8.6642213864e-04    1.0000164844e+05
    8.9412782108e-04    1.0000128906e+05
    9.2182843946e-04    1.0000043750e+05
    9.4952445943e-04    1.0000021875e+05
    9.7721535712e-04    1.0000003906e+05
    1.0049008997e-03    9.9993039062e+04
    1.0325826006e-03    1.0000032031e+05
    1.0602590628e-03    1.0000016406e+05
    1.0879321489e-03    1.0001034375e+05
    1.1155996472e-03    1.0000777344e+05
    1.1432634201e-03    9.9998507812e+04
    1.1709230021e-03    9.9993570312e+04
    1.1985785095e-03    9.9991648438e+04
    1.2262313394e-03    1.0000083594e+05
    1.2538790470e-03    1.0000971875e+05
    1.2815232622e-03    1.0000121094e+05
    1.3091630535e-03    9.9992648438e+04
    1.3368004002e-03    9.9995273438e+04
    1.3644339051e-03    1.0001019531e+05
    1.3920635683e-03    1.0003446094e+05
    1.4196902048e-03    1.0006314844e+05
    1.4473132323e-03    1.0010644531e+05
    1.4749332331e-03    1.0018944531e+05
    1.5025498578e-03    1.0032081250e+05
    1.5301633393e-03    1.0051234375e+05
    1.5577742597e-03    1.0077312500e+05
    1.5853822697e-03    1.0109502344e+05
    1.6129877185e-03    1.0146633594e+05
    1.6405890929e-03    1.0186527344e+05
    1.6681876732e-03    1.0225585156e+05
    1.6957829939e-03    1.0260041406e+05
    1.7233766848e-03    1.0287107031e+05
    1.7509678146e-03    1.0305155469e+05
    1.7785291420e-03    1.0313699219e+05
    1.8060547300e-03    1.0312996094e+05
    1.8335470231e-03    1.0305533594e+05
    1.8610082334e-03    1.0292133594e+05
    1.8884401070e-03    1.0275130469e+05
    1.9158447394e-03    1.0257941406e+05
    1.9432241097e-03    1.0241565625e+05
    1.9705800805e-03    1.0229205469e+05
    1.9979148638e-03    1.0222203906e+05
    2.0252298564e-03    1.0219371094e+05
    2.0525271539e-03    1.0221844531e+05
    2.0798076876e-03    1.0227225781e+05
    2.1070730872e-03    1.0234016406e+05
    2.1343247499e-03    1.0242106250e+05
    2.1615643054e-03    1.0247949219e+05
    2.1887931507e-03    1.0252124219e+05
    2.2160108201e-03    1.0254271094e+05
    2.2432196420e-03    1.0254281250e+05
    2.2704207804e-03    1.0252447656e+05
    2.2976147011e-03    1.0248466406e+05
    2.3248014040e-03    1.0244452344e+05
    2.3519827519e-03    1.0241003906e+05
    2.3791582789e-03    1.0238694531e+05
    2.4063293822e-03    1.0237817969e+05
    2.4334960617e-03    1.0238741406e+05
    2.4606597144e-03    1.0239989844e+05
    2.4878205732e-03    1.0241810156e+05
    2.5149781723e-03    1.0242847656e+05
    2.5421329774e-03    1.0244192969e+05
    2.5692859199e-03    1.0244300000e+05
    2.5964374654e-03    1.0244560156e+05
    2.6235871483e-03    1.0244074219e+05
    2.6507352013e-03    1.0243508594e+05
    2.6778825559e-03    1.0242603906e+05
    2.7050296776e-03    1.0242178125e+05
    2.7321761008e-03    1.0242032031e+05
    2.7593218256e-03    1.0241980469e+05
    2.7864677832e-03    1.0242133594e+05
    2.8136142064e-03    1.0242368750e+05
    2.8407603968e-03    1.0243589844e+05
    2.8679079842e-03    1.0244166406e+05
    2.8950548731e-03    1.0246211719e+05
    2.9222022276e-03    1.0248605469e+05
    2.9493502807e-03    1.0252310156e+05
    2.9764990322e-03    1.0257258594e+05
    3.0036487151e-03    1.0263632031e+05
    3.0307997949e-03    1.0272275781e+05
    3.0579508748e-03    1.0282147656e+05
    3.0851035845e-03    1.0291575000e+05
    3.1122572254e-03    1.0301771094e+05
    3.1394117977e-03    1.0311633594e+05
    3.1665677670e-03    1.0320283594e+05
    3.1937246677e-03    1.0326725000e+05
    3.2208829653e-03    1.0330090625e+05
    3.2480424270e-03    1.0330553906e+05
    3.2752046827e-03    1.0328784375e+05
    3.2952371985e-03    1.0325600000e+05
    3.3145032357e-03    1.0322661719e+05
    3.3336398192e-03    1.0319094531e+05
    3.3528339118e-03    1.0314924219e+05
    3.3720366191e-03    1.0310327344e+05
    3.3912549261e-03    1.0305888281e+05
    3.4104890656e-03    1.0301600781e+05
    3.4297339153e-03    1.0297160156e+05
    3.4486323129e-03    1.0292672656e+05
    3.4671388566e-03    1.0287838281e+05
    3.4854323603e-03    1.0283036719e+05
    3.5036695190e-03    1.0276986719e+05
    3.5219141282e-03    1.0270564844e+05
    3.5401545465e-03    1.0263766406e+05
    3.5583588760e-03    1.0256563281e+05
    3.5765271168e-03    1.0249697656e+05
    3.5946895368e-03    1.0243096094e+05
    3.6139658187e-03    1.0237465625e+05
    3.6330535077e-03    1.0232477344e+05
    3.6521453876e-03    1.0228446875e+05
    3.6699753255e-03    1.0225216406e+05
    3.6875614896e-03    1.0222850000e+05
    3.7050142419e-03    1.0221127344e+05
    3.7224807311e-03    1.0219156250e+05
    3.7400643341e-03    1.0217897656e+05
    3.7577797193e-03    1.0216825000e+05
    3.7755726371e-03    1.0215046094e+05
    3.7933769636e-03    1.0214425000e+05
    3.8111612666e-03    1.0213889844e+05
    3.8289318327e-03    1.0213089844e+05
    3.8467168342e-03    1.0212416406e+05
    3.8645383902e-03    1.0212185156e+05
    3.8824023213e-03    1.0211636719e+05
    3.9002960548e-03    1.0210403125e+05
    3.9182156324e-03    1.0209210156e+05
    3.9361710660e-03    1.0207078906e+05
    3.9541716687e-03    1.0204849219e+05
    3.9733103476e-03    1.0203083594e+05
    3.9924201556e-03    1.0201253906e+05
    4.0104058571e-03    1.0200453125e+05
    4.0284004062e-03    1.0198822656e+05
    4.0464363992e-03    1.0198271094e+05
    4.0656095371e-03    1.0197813281e+05
    4.0847789496e-03    1.0197496094e+05
    4.1039343923e-03    1.0196244531e+05
    4.1219722480e-03    1.0195021094e+05
    4.1400394402e-03    1.0194712500e+05
    4.1591953486e-03    1.0193521875e+05
    4.1784178466e-03    1.0193335156e+05
    4.1976389475e-03    1.0192935156e+05
    4.2168586515e-03    1.0192053906e+05
    4.2360713705e-03    1.0191025781e+05
    4.2552771047e-03    1.0190007031e+05
    4.2744791135e-03    1.0187984375e+05
    4.2936825193e-03    1.0186825781e+05
    4.3128933758e-03    1.0186560156e+05
    4.3321144767e-03    1.0185264844e+05
    4.3513495475e-03    1.0184342969e+05
    4.3705995195e-03    1.0182996094e+05
    4.3898657896e-03    1.0180975781e+05
    4.4091497548e-03    1.0178474219e+05
    4.4284537435e-03    1.0174964844e+05
    4.4477786869e-03    1.0171014844e+05
    4.4671236537e-03    1.0166787500e+05
    4.4864914380e-03    1.0161946094e+05
    4.5058806427e-03    1.0155550000e+05
    4.5252908021e-03    1.0148925781e+05
    4.5447219163e-03    1.0140652344e+05
    4.5641721226e-03    1.0132109375e+05
    4.5836409554e-03    1.0121902344e+05
    4.6031279489e-03    1.0110889844e+05
    4.6226321720e-03    1.0098862500e+05
    4.6421540901e-03    1.0086730469e+05
    4.6616927721e-03    1.0074013281e+05
    4.6812482178e-03    1.0061910156e+05
    4.7008208930e-03    1.0050566406e+05
    4.7204112634e-03    1.0040700781e+05
    4.7400193289e-03    1.0032009375e+05
    4.7596455552e-03    1.0025775000e+05
    4.7792894766e-03    1.0021411719e+05
    4.7989510931e-03    1.0019424219e+05
    4.8186304048e-03    1.0020412500e+05
    4.8383255489e-03    1.0023631250e+05
    4.8580355942e-03    1.0029134375e+05
    4.8777610064e-03    1.0036765625e+05
    4.8975008540e-03    1.0046190625e+05
    4.9172551371e-03    1.0056817969e+05
    4.9370229244e-03    1.0068382031e+05
    4.9568060786e-03    1.0080216406e+05
    4.9766036682e-03    1.0092289844e+05
    4.9964170903e-03    1.0104346094e+05
    5.0162458792e-03    1.0116103125e+05
    5.0360900350e-03    1.0127447656e+05
    5.0559476949e-03    1.0137416406e+05
    5.0758207217e-03    1.0146622656e+05
    5.0957072526e-03    1.0154514844e+05
    5.1156077534e-03    1.0161189844e+05
    5.1355226897e-03    1.0166664844e+05
    5.1554525271e-03    1.0170785156e+05
    5.1753963344e-03    1.0173768750e+05
    5.1953555085e-03    1.0175159375e+05
    5.2153295837e-03    1.0174694531e+05
    5.2353194915e-03    1.0172688281e+05
    5.2553247660e-03    1.0169228906e+05
    5.2753463387e-03    1.0164392969e+05
    5.2953832783e-03    1.0158347656e+05
    5.3154369816e-03    1.0150532031e+05
    5.3355065174e-03    1.0141155469e+05
    5.3555918857e-03    1.0131131250e+05
    5.3756926209e-03    1.0119614844e+05
    5.3958082572e-03    1.0107153906e+05
    5.4159392603e-03    1.0093660156e+05
    5.4360851645e-03    1.0080249219e+05
    5.4562464356e-03    1.0066228906e+05
    5.4764230736e-03    1.0052712500e+05
    5.4966160096e-03    1.0039617969e+05
    5.5168238468e-03    1.0028152344e+05
    5.5370470509e-03    1.0017427344e+05
    5.5572865531e-03    1.0008347656e+05
    5.5775423534e-03    1.0001003906e+05
    5.5978130549e-03    9.9955187500e+04
    5.6181000546e-03    9.9918992188e+04
    5.6384028867e-03    9.9898789062e+04
    5.6587206200e-03    9.9895460938e+04
    5.6790532544e-03    9.9908718750e+04
    5.6994007900e-03    9.9939250000e+04
    5.7197632268e-03    9.9978960938e+04
    5.7401410304e-03    1.0002585156e+05
    5.7605337352e-03    1.0007803906e+05
    5.7809422724e-03    1.0012752344e+05
    5.8013652451e-03    1.0017449219e+05
    5.8218040504e-03    1.0021724219e+05
    5.8422577567e-03    1.0025925781e+05
    5.8627268299e-03    1.0029507031e+05
    5.8832112700e-03    1.0034314844e+05
    5.9037101455e-03    1.0041021094e+05
    5.9242248535e-03    1.0056317969e+05
    5.9447535314e-03    1.0091292969e+05
    5.9641525149e-03    1.0172853906e+05
    5.9830932878e-03    1.0340208594e+05
    6.0020405799e-03    1.0654853906e+05
    6.0210367665e-03    1.1188510156e+05
    6.0400799848e-03    1.1986972656e+05
    6.0591096990e-03    1.3027188281e+05
    6.0781282373e-03    1.4183457812e+05
    6.0972142965e-03    1.5279026562e+05
    6.1162756756e-03    1.6150278125e+05
    6.1353649944e-03    1.6711064062e+05
    6.1544459313e-03    1.6974864062e+05
    6.1734300107e-03    1.7018101562e+05
    6.1924448237e-03    1.6933726562e+05
    6.2115197070e-03    1.6798920312e+05
    6.2306127511e-03    1.6664220312e+05
    6.2497169711e-03    1.6544675000e+05
    6.2688281760e-03    1.6433540625e+05
    6.2879407778e-03    1.6313473438e+05
    6.3070552424e-03    1.6176592188e+05
    6.3261794858e-03    1.6020157812e+05
    6.3453060575e-03    1.5847273438e+05
    6.3644465990e-03    1.5665679688e+05
    6.3835908659e-03    1.5482432812e+05
    6.4027444459e-03    1.5302817188e+05
    6.4219115302e-03    1.5131009375e+05
    6.4410855994e-03    1.4966753125e+05
    6.4602680504e-03    1.4808225000e+05
    6.4794607460e-03    1.4654670312e+05
    6.4986641519e-03    1.4503979688e+05
    6.5178787336e-03    1.4356243750e+05
    6.5371058881e-03    1.4211929688e+05
    6.5563363023e-03    1.4074073438e+05
    6.5755699761e-03    1.3943673438e+05
    6.5948092379e-03    1.3822514062e+05
    6.6140629351e-03    1.3709153125e+05
    6.6333152354e-03    1.3604260938e+05
    6.6525745206e-03    1.3505842188e+05
    6.6718445159e-03    1.3413751562e+05
    6.6911154427e-03    1.3326153125e+05
    6.7104012705e-03    1.3243804688e+05
    6.7296870984e-03    1.3165101562e+05
    6.7489854991e-03    1.3090509375e+05
    6.7682852969e-03    1.3018625000e+05
    6.7875892855e-03    1.2950816406e+05
    6.8069072440e-03    1.2885160156e+05
    6.8262196146e-03    1.2822290625e+05
    6.8455408327e-03    1.2763062500e+05
    6.8648783490e-03    1.2704639844e+05
    6.8842126057e-03    1.2649250000e+05
    6.9035501219e-03    1.2594583594e+05
    6.9228983484e-03    1.2542458594e+05
    6.9422605447e-03    1.2491389844e+05
    6.9616222754e-03    1.2442614844e+05
    6.9809844717e-03    1.2396096094e+05
    7.0003494620e-03    1.2351450781e+05
    7.0197195746e-03    1.2308739844e+05
    7.0390999317e-03    1.2268312500e+05
    7.0584909990e-03    1.2229302344e+05
    7.0778946392e-03    1.2192506250e+05
    7.0973108523e-03    1.2157999219e+05
    7.1167377755e-03    1.2125196094e+05
    7.1361698210e-03    1.2094383594e+05
    7.1556069888e-03    1.2065374219e+05
    7.1750483476e-03    1.2037999219e+05
    7.1944966912e-03    1.2013496094e+05
    7.2139529511e-03    1.1990300000e+05
    7.2334166616e-03    1.1968383594e+05
    7.2528840974e-03    1.1948319531e+05
    7.2723543271e-03    1.1928803906e+05
    7.2918278165e-03    1.1910846094e+05
    7.3113050312e-03    1.1893800000e+05
    7.3307845742e-03    1.1876410156e+05
    7.3502692394e-03    1.1859556250e+05
    7.3697618209e-03    1.1843180469e+05
    7.3892641813e-03    1.1826706250e+05
    7.4087800458e-03    1.1810196094e+05
    7.4282912537e-03    1.1794439844e+05
    7.4477996677e-03    1.1778272656e+05
    7.4673094787e-03    1.1763050781e+05
    7.4868267402e-03    1.1747114844e+05
    7.5063589029e-03    1.1730928906e+05
    7.5258887373e-03    1.1715352344e+05
    7.5454111211e-03    1.1699253906e+05
    7.5649353676e-03    1.1684382031e+05
    7.5844703242e-03    1.1669192969e+05
    7.6040057465e-03    1.1654868750e+05
    7.6235276647e-03    1.1640885156e+05
    7.6430505142e-03    1.1627178125e+05
    7.6625877991e-03    1.1614293750e+05
    7.6821087860e-03    1.1602271094e+05
    7.7016241848e-03    1.1591135156e+05
    7.7211544849e-03    1.1579578906e+05
    7.7406810597e-03    1.1568697656e+05
    7.7602043748e-03    1.1557771875e+05
    7.7797495760e-03    1.1545817969e+05
    7.7992938459e-03    1.1533577344e+05
    7.8188432381e-03    1.1520660156e+05
    7.8384252265e-03    1.1507485156e+05
    7.8580006957e-03    1.1493764844e+05
    7.8775910661e-03    1.1478802344e+05
    7.8972103074e-03    1.1464475781e+05
    7.9168286175e-03    1.1449653125e+05
    7.9364804551e-03    1.1433928906e+05
    7.9561360180e-03    1.1417987500e+05
    7.9758102074e-03    1.1401647656e+05
    7.9955114052e-03    1.1385321094e+05
    8.0152126029e-03    1.1369215625e+05
    8.0349491909e-03    1.1353809375e+05
    8.0546662211e-03    1.1339530469e+05
    8.0743944272e-03    1.1326810156e+05
    8.0941170454e-03    1.1315766406e+05
    8.1138620153e-03    1.1306353125e+05
    8.1336386502e-03    1.1298385156e+05
    8.1534720957e-03    1.1292717969e+05
    8.1733558327e-03    1.1287905469e+05
    8.1932730973e-03    1.1283999219e+05
    8.2132071257e-03    1.1281215625e+05
    8.2330890000e-03    1.1279221094e+05
    8.2529615611e-03    1.1277140625e+05
    8.2727763802e-03    1.1273710156e+05
    8.2926023751e-03    1.1269414844e+05
    8.3124246448e-03    1.1264525781e+05
    8.3322748542e-03    1.1257886719e+05
    8.3521194756e-03    1.1250685156e+05
    8.3719678223e-03    1.1241846094e+05
    8.3917891607e-03    1.1231941406e+05
    8.4116021171e-03    1.1220925781e+05
    8.4314141423e-03    1.1208936719e+05
    8.4512168542e-03    1.1196756250e+05
    8.4710381925e-03    1.1184307031e+05
    8.4908353165e-03    1.1171371094e+05
    8.5106678307e-03    1.1159082031e+05
    8.5304882377e-03    1.1146985156e+05
    8.5503393784e-03    1.1134381250e+05
    8.5699046031e-03    1.1121508594e+05
    8.5892248899e-03    1.1108944531e+05
    8.6083402857e-03    1.1096386719e+05
    8.6272666231e-03    1.1083646094e+05
    8.6460309103e-03    1.1070668750e+05
    8.6646731943e-03    1.1056771094e+05
    8.6832325906e-03    1.1042140625e+05
    8.7017398328e-03    1.1026308594e+05
    8.7202098221e-03    1.1009010156e+05
    8.7386453524e-03    1.0990360156e+05
    8.7570473552e-03    1.0970908594e+05
    8.7753897533e-03    1.0950703906e+05
    8.7936492637e-03    1.0930100000e+05
    8.8118780404e-03    1.0909671094e+05
    8.8300397620e-03    1.0889084375e+05
    8.8481390849e-03    1.0868535156e+05
    8.8662039489e-03    1.0848141406e+05
    8.8842641562e-03    1.0827960156e+05
    8.9023411274e-03    1.0808550781e+05
    8.9204348624e-03    1.0789887500e+05
    8.9385388419e-03    1.0772053906e+05
    8.9566456154e-03    1.0755833594e+05
    8.9747514576e-03    1.0740113281e+05
    8.9928600937e-03    1.0725249219e+05
    9.0109808370e-03    1.0712012500e+05
    9.0291155502e-03    1.0699646094e+05
    9.0472688898e-03    1.0688416406e+05
    9.0654399246e-03    1.0677912500e+05
    9.0836230665e-03    1.0668980469e+05
    9.1018192470e-03    1.0660810156e+05
    9.1200266033e-03    1.0653096094e+05
    9.1382460669e-03    1.0646334375e+05
    9.1564757749e-03    1.0639860156e+05
    9.1747231781e-03    1.0633815625e+05
    9.1929892078e-03    1.0628300781e+05
    9.2112747952e-03    1.0623143750e+05
    9.2295790091e-03    1.0618038281e+05
    9.2479009181e-03    1.0613571094e+05
    9.2662386596e-03    1.0610035156e+05
    9.2845931649e-03    1.0607327344e+05
    9.3029672280e-03    1.0604410156e+05
    9.3213599175e-03    1.0602412500e+05
    9.3397712335e-03    1.0600632031e+05
    9.3582011759e-03    1.0598600000e+05
    9.3766497448e-03    1.0596978906e+05
    9.3951150775e-03    1.0594481250e+05
    9.4135999680e-03    1.0592334375e+05
    9.4321016222e-03    1.0589780469e+05
    9.4506228343e-03    1.0587088281e+05
    9.4691645354e-03    1.0584735156e+05
    9.4877239317e-03    1.0583233594e+05
    9.5063010231e-03    1.0581578906e+05
    9.5248948783e-03    1.0580053906e+05
    9.5435054973e-03    1.0579064844e+05
    9.5621328801e-03    1.0577453906e+05
    9.5807760954e-03    1.0575850000e+05
    9.5994332805e-03    1.0573240625e+05
    9.6181081608e-03    1.0570787500e+05
    9.6367979422e-03    1.0568482031e+05
    9.6555035561e-03    1.0565871094e+05
    9.6742231399e-03    1.0563211719e+05
    9.6929576248e-03    1.0560925000e+05
    9.7117051482e-03    1.0558150000e+05
    9.7304685041e-03    1.0555072656e+05
    9.7492448986e-03    1.0551433594e+05
    9.7680361941e-03    1.0548447656e+05
    9.7868405282e-03    1.0544928125e+05
    9.8056588322e-03    1.0540924219e+05
    9.8244920373e-03    1.0536981250e+05
    9.8433364183e-03    1.0532903125e+05
    9.8621929064e-03    1.0529032031e+05
    9.8810633644e-03    1.0525446875e+05
    9.8999459296e-03    1.0521383594e+05
    9.9188406020e-03    1.0517861719e+05
    9.9377483130e-03    1.0514472656e+05
    9.9566690624e-03    1.0511608594e+05
    9.9756028503e-03    1.0509283594e+05
    9.9945487455e-03    1.0506481250e+05
    1.0013507679e-02    1.0503746875e+05
    1.0032479651e-02    1.0500524219e+05
    1.0051463731e-02    1.0497753906e+05
    1.0070459917e-02    1.0493924219e+05
    1.0089469142e-02    1.0490400000e+05
    1.0108492337e-02    1.0486258594e+05
    1.0127528571e-02    1.0482014844e+05
    1.0146577843e-02    1.0477136719e+05
    1.0165639222e-02    1.0472647656e+05
    1.0184712708e-02    1.0467586719e+05
    1.0203798302e-02    1.0461999219e+05
    1.0222896002e-02    1.0455272656e+05
    1.0242006741e-02    1.0447946094e+05
    1.0261129588e-02    1.0440114844e+05
    1.0280264542e-02    1.0431433594e+05
    1.0299413465e-02    1.0422924219e+05
    1.0318575427e-02    1.0414097656e+05
    1.0337748565e-02    1.0405218750e+05
    1.0356934741e-02    1.0396177344e+05
    1.0376133956e-02    1.0386809375e+05
    1.0395346209e-02    1.0378847656e+05
    1.0414571501e-02    1.0370772656e+05
    1.0433809832e-02    1.0364015625e+05
    1.0453061201e-02    1.0357839844e+05
    1.0472324677e-02    1.0353256250e+05
    1.0491601191e-02    1.0349685156e+05
    1.0510892607e-02    1.0346893750e+05
    1.0530196130e-02    1.0344739844e+05
    1.0549513623e-02    1.0342740625e+05
    1.0568842292e-02    1.0340649219e+05
    1.0588183999e-02    1.0337687500e+05
    1.0607538745e-02    1.0335432031e+05
    1.0626907460e-02    1.0332000000e+05
    1.0646289214e-02    1.0328305469e+05
    1.0665684007e-02    1.0324064844e+05
    1.0685092770e-02    1.0318946094e+05
    1.0704516433e-02    1.0313113281e+05
    1.0723951273e-02    1.0307630469e+05
    1.0743400082e-02    1.0302397656e+05
    1.0762862861e-02    1.0298188281e+05
    1.0782338679e-02    1.0294043750e+05
    1.0801829398e-02    1.0291000000e+05
    1.0821334086e-02    1.0288762500e+05
    1.0840852745e-02    1.0286272656e+05
    1.0860386305e-02    1.0283678906e+05
    1.0879932903e-02    1.0280658594e+05
    1.0899493471e-02    1.0278030469e+05
    1.0919069871e-02    1.0274850781e+05
    1.0938662104e-02    1.0270978906e+05
    1.0958270170e-02    1.0267053906e+05
    1.0977892205e-02    1.0262650781e+05
    1.0997531936e-02    1.0258937500e+05
    1.1017187499e-02    1.0255653906e+05
    1.1036860757e-02    1.0252696094e+05
    1.1056551710e-02    1.0250278906e+05
    1.1076259427e-02    1.0246980469e+05
    1.1095987633e-02    1.0244313281e+05
    1.1115733534e-02    1.0240633594e+05
    1.1135498993e-02    1.0237386719e+05
    1.1155283079e-02    1.0233718750e+05
    1.1175086722e-02    1.0229966406e+05
    1.1194912717e-02    1.0226203906e+05
    1.1214758269e-02    1.0221875781e+05
    1.1234625243e-02    1.0217410156e+05
    1.1254511774e-02    1.0213497656e+05
    1.1274418794e-02    1.0209421094e+05
    1.1294347234e-02    1.0205377344e+05
    1.1314296164e-02    1.0201740625e+05
    1.1334266514e-02    1.0198103906e+05
    1.1354257353e-02    1.0194022656e+05
    1.1374268681e-02    1.0189908594e+05
    1.1394302361e-02    1.0185541406e+05
    1.1414355598e-02    1.0180719531e+05
    1.1434430256e-02    1.0174833594e+05
    1.1454525404e-02    1.0170728906e+05
    1.1474640109e-02    1.0165628906e+05
    1.1494777165e-02    1.0160894531e+05
    1.1514934711e-02    1.0156246875e+05
    1.1535113677e-02    1.0151599219e+05
    1.1555313133e-02    1.0147421094e+05
    1.1575534008e-02    1.0143382031e+05
    1.1595774442e-02    1.0140552344e+05
    1.1616035365e-02    1.0138875000e+05
    1.1636316776e-02    1.0139578906e+05
    1.1656619608e-02    1.0143210156e+05
    1.1676942930e-02    1.0149494531e+05
    1.1697287671e-02    1.0160810156e+05
    1.1717652902e-02    1.0177868750e+05
    1.1738038622e-02    1.0203047656e+05
    1.1758443899e-02    1.0237622656e+05
    1.1778870597e-02    1.0284511719e+05
    1.1799318716e-02    1.0345415625e+05
    1.1819788255e-02    1.0422385156e+05
    1.1840280145e-02    1.0514831250e+05
    1.1860790662e-02    1.0622802344e+05
    1.1881321669e-02    1.0741066406e+05
    1.1901874095e-02    1.0863710156e+05
    1.1922447011e-02    1.0981061719e+05
    1.1943042278e-02    1.1085497656e+05
    1.1963658035e-02    1.1167946094e+05
    1.1984295212e-02    1.1223688281e+05
    1.2004952878e-02    1.1249860156e+05
    1.2025631964e-02    1.1248093750e+05
    1.2046331540e-02    1.1221235156e+05
    1.2067052536e-02    1.1174144531e+05
    1.2087795883e-02    1.1111909375e+05
    1.2108558789e-02    1.1041365625e+05
    1.2129344046e-02    1.0967577344e+05
    1.2150149792e-02    1.0895734375e+05
    1.2170976959e-02    1.0829825781e+05
    1.2191825546e-02    1.0773069531e+05
    1.2212695554e-02    1.0726294531e+05
    1.2233586982e-02    1.0688186719e+05
    1.2254500762e-02    1.0656036719e+05
    1.2275436893e-02    1.0626074219e+05
    1.2296394445e-02    1.0594082031e+05
    1.2317374349e-02    1.0557789844e+05
    1.2338375673e-02    1.0516077344e+05
    1.2359398417e-02    1.0468775781e+05
    1.2380442582e-02    1.0417647656e+05
    1.2401508167e-02    1.0364546094e+05
    1.2422595173e-02    1.0311852344e+05
    1.2443703599e-02    1.0260991406e+05
    1.2464834377e-02    1.0213941406e+05
    1.2485986575e-02    1.0172700000e+05
    1.2507158332e-02    1.0137178125e+05
    1.2528351508e-02    1.0107742969e+05
    1.2549565174e-02    1.0083390625e+05
    1.2570801191e-02    1.0063321094e+05
    1.2592058629e-02    1.0045531250e+05
    1.2613337487e-02    1.0029408594e+05
    1.2634636834e-02    1.0013753906e+05
    1.2655957602e-02    9.9994148438e+04
    1.2677297927e-02    9.9864132812e+04
    1.2698660605e-02    9.9751820312e+04
    1.2720043771e-02    9.9655914062e+04
    1.2741449289e-02    9.9581273438e+04
    1.2762876227e-02    9.9528281250e+04
    1.2784325518e-02    9.9502031250e+04
    1.2805794366e-02    9.9496960938e+04
    1.2827285565e-02    9.9512843750e+04
    1.2848797254e-02    9.9536312500e+04
    1.2870330364e-02    9.9558773438e+04
    1.2891885825e-02    9.9571250000e+04
    1.2913462706e-02    9.9563835938e+04
    1.2935061008e-02    9.9539781250e+04
    1.2956679799e-02    9.9496914062e+04
    1.2978320010e-02    9.9430476562e+04
    1.2999981642e-02    9.9358156250e+04
    1.3021663763e-02    9.9277960938e+04
    1.3043368235e-02    9.9207710938e+04
    1.3065092266e-02    9.9159835938e+04
    1.3086837716e-02    9.9142031250e+04
    1.3108605519e-02    9.9153054688e+04
    1.3130392879e-02    9.9199195312e+04
    1.3152201660e-02    9.9266257812e+04
    1.3174032792e-02    9.9347289062e+04
    1.3195885345e-02    9.9429773438e+04
    1.3217759319e-02    9.9495656250e+04
    1.3239653781e-02    9.9536750000e+04
    1.3261569664e-02    9.9558000000e+04
    1.3283506967e-02    9.9555070312e+04
    1.3305463828e-02    9.9530179688e+04
    1.3327440247e-02    9.9502773438e+04
    1.3349435292e-02    9.9475429688e+04
    1.3371448033e-02    9.9450656250e+04
    1.3393475674e-02    9.9438351562e+04
    1.3415516354e-02    9.9432507812e+04
    1.3437564485e-02    9.9445507812e+04
    1.3459613547e-02    9.9465976562e+04
    1.3481658883e-02    9.9492093750e+04
    1.3503690250e-02    9.9516156250e+04
    1.3525702059e-02    9.9542789062e+04
    1.3547683135e-02    9.9563351562e+04
    1.3569628820e-02    9.9584148438e+04
    1.3591531664e-02    9.9601125000e+04
    1.3613392599e-02    9.9617023438e+04
    1.3635210693e-02    9.9631179688e+04
    1.3656994328e-02    9.9650335938e+04
    1.3678749092e-02    9.9669226562e+04
    1.3700488023e-02    9.9694062500e+04
    1.3722228818e-02    9.9731492188e+04
    1.3743981719e-02    9.9766867188e+04
    1.3765762560e-02    9.9809789062e+04
    1.3787578791e-02    9.9861335938e+04
    1.3809437864e-02    9.9909718750e+04
    1.3831341639e-02    9.9965335938e+04
    1.3853288256e-02    1.0001981250e+05
    1.3875273056e-02    1.0008241406e+05
    1.3897285797e-02    1.0013810156e+05
    1.3919321820e-02    1.0019584375e+05
    1.3941374607e-02    1.0025583594e+05
    1.3963440433e-02    1.0031796875e+05
    1.3985517435e-02    1.0037578906e+05
    1.4007603750e-02    1.0043047656e+05
    1.4029704034e-02    1.0048665625e+05
    1.4051820152e-02    1.0054175781e+05
    1.4073957689e-02    1.0059822656e+05
    1.4096121304e-02    1.0064571094e+05
    1.4118315652e-02    1.0068991406e+05
    1.4140545391e-02    1.0073033594e+05
    1.4162814245e-02    1.0076610156e+05
    1.4185124077e-02    1.0079033594e+05
    1.4207473956e-02    1.0081088281e+05
    1.4229862019e-02    1.0082927344e+05
    1.4252286404e-02    1.0083977344e+05
    1.4274741523e-02    1.0084253125e+05
    1.4297228307e-02    1.0084706250e+05
    1.4319745824e-02    1.0084510156e+05
    1.4342290349e-02    1.0082772656e+05
    1.4364863746e-02    1.0081574219e+05
    1.4387467876e-02    1.0080928906e+05
    1.4410103671e-02    1.0079114844e+05
    1.4432771131e-02    1.0077271094e+05
    1.4455472119e-02    1.0075346094e+05
    1.4478209428e-02    1.0072975000e+05
    1.4500979334e-02    1.0070557031e+05
    1.4523783699e-02    1.0068275000e+05
    1.4546621591e-02    1.0065932031e+05
    1.4569494873e-02    1.0063831250e+05
    1.4592399821e-02    1.0062000781e+05
    1.4615339227e-02    1.0059833594e+05
    1.4638305642e-02    1.0057877344e+05
    1.4661304653e-02    1.0056224219e+05
    1.4684336260e-02    1.0054200781e+05
    1.4707398601e-02    1.0052446094e+05
    1.4730494469e-02    1.0051366406e+05
    1.4753622934e-02    1.0050652344e+05
    1.4776783995e-02    1.0050922656e+05
    1.4799979515e-02    1.0050941406e+05
    1.4823205769e-02    1.0051056250e+05
    1.4846466482e-02    1.0050975000e+05
    1.4869757928e-02    1.0051425000e+05
    1.4893081971e-02    1.0051237500e+05
    1.4916437678e-02    1.0052100781e+05
    1.4939822257e-02    1.0052896875e+05
    1.4963239431e-02    1.0053446094e+05
    1.4986685477e-02    1.0055039844e+05
    1.5010161325e-02    1.0056041406e+05
    1.5033668838e-02    1.0058213281e+05
    1.5057205223e-02    1.0060400781e+05
    1.5080772340e-02    1.0063711719e+05
    1.5104367398e-02    1.0068071094e+05
    1.5127992257e-02    1.0072227344e+05
    1.5151646920e-02    1.0077280469e+05
    1.5175330453e-02    1.0082510156e+05
    1.5199041925e-02    1.0088172656e+05
    1.5222782269e-02    1.0093681250e+05
    1.5246548690e-02    1.0098530469e+05
    1.5270343982e-02    1.0102956250e+05
    1.5294168144e-02    1.0107071875e+05
    1.5318016522e-02    1.0109532031e+05
    1.5341891907e-02    1.0111799219e+05
    1.5365792438e-02    1.0112908594e+05
    1.5389721841e-02    1.0113408594e+05
    1.5413676389e-02    1.0113746094e+05
    1.5437657945e-02    1.0113409375e+05
    1.5461664647e-02    1.0112903906e+05
    1.5485695563e-02    1.0112747656e+05
    1.5509752557e-02    1.0112485156e+05
    1.5533835627e-02    1.0112221094e+05
    1.5557944775e-02    1.0112225000e+05
    1.5582079068e-02    1.0113035156e+05
    1.5606240369e-02    1.0114197656e+05
    1.5630424023e-02    1.0115793750e+05
    1.5654634684e-02    1.0117422656e+05
    1.5678871423e-02    1.0120037500e+05
    1.5703132376e-02    1.0122815625e+05
    1.5727419406e-02    1.0125296094e+05
    1.5751728788e-02    1.0128319531e+05
    1.5776060522e-02    1.0131403125e+05
    1.5800418332e-02    1.0134514844e+05
    1.5824800357e-02    1.0137218750e+05
    1.5849204734e-02    1.0140482031e+05
    1.5873633325e-02    1.0142396094e+05
    1.5898084268e-02    1.0145246875e+05
    1.5922557563e-02    1.0147553906e+05
    1.5947058797e-02    1.0149958594e+05
    1.5971582383e-02    1.0150850000e+05
    1.5996130183e-02    1.0152565625e+05
    1.6020702198e-02    1.0153828906e+05
    1.6045298427e-02    1.0154522656e+05
    1.6069920734e-02    1.0154892969e+05
    1.6094569117e-02    1.0154672656e+05
    1.6119243577e-02    1.0154603125e+05
    1.6143942252e-02    1.0154861719e+05
    1.6168667004e-02    1.0154552344e+05
    1.6193419695e-02    1.0153915625e+05
    1.6218200326e-02    1.0152877344e+05
    1.6243007034e-02    1.0152058594e+05
    1.6267839819e-02    1.0150916406e+05
    1.6292702407e-02    1.0149983594e+05
    1.6317596659e-02    1.0149771875e+05
    1.6342513263e-02    1.0149231250e+05
    1.6367461532e-02    1.0149462500e+05
    1.6392435879e-02    1.0148916406e+05
    1.6417443752e-02    1.0149743750e+05
    1.6442479566e-02    1.0150783594e+05
    1.6467543319e-02    1.0152372656e+05
    1.6492636874e-02    1.0153958594e+05
    1.6517756507e-02    1.0156208594e+05
    1.6542907804e-02    1.0158724219e+05
    1.6568088904e-02    1.0161850000e+05
    1.6593271866e-02    1.0164817969e+05
    1.6618426889e-02    1.0168491406e+05
    1.6643559560e-02    1.0171392969e+05
    1.6668669879e-02    1.0175393750e+05
    1.6693757847e-02    1.0178212500e+05
    1.6718825325e-02    1.0180607031e+05
    1.6743874177e-02    1.0183481250e+05
    1.6768900678e-02    1.0185468750e+05
    1.6793908551e-02    1.0186786719e+05
    1.6818899661e-02    1.0188333594e+05
    1.6843874007e-02    1.0189460156e+05
    1.6868829727e-02    1.0189482031e+05
    1.6893770546e-02    1.0190031250e+05
    1.6918692738e-02    1.0189458594e+05
    1.6943598166e-02    1.0188936719e+05
    1.6968490556e-02    1.0188628906e+05
    1.6993366182e-02    1.0187397656e+05
    1.7018226907e-02    1.0186110156e+05
    1.7043072730e-02    1.0185563281e+05
    1.7067901790e-02    1.0184902344e+05
    1.7092714086e-02    1.0183996875e+05
    1.7117511481e-02    1.0183546875e+05
    1.7142292112e-02    1.0183060156e+05
    1.7167057842e-02    1.0183030469e+05
    1.7191808671e-02    1.0183114844e+05
    1.7216544598e-02    1.0183137500e+05
    1.7241263762e-02    1.0183014844e+05
    1.7265968025e-02    1.0182907031e+05
    1.7290659249e-02    1.0183075000e+05
    1.7315333709e-02    1.0183696094e+05
    1.7339993268e-02    1.0183646094e+05
    1.7364639789e-02    1.0183500781e+05
    1.7389267683e-02    1.0184260156e+05
    1.7413880676e-02    1.0183991406e+05
    1.7438478768e-02    1.0184742969e+05
    1.7463061959e-02    1.0184566406e+05
    1.7487626523e-02    1.0185486719e+05
    1.7512176186e-02    1.0186391406e+05
    1.7536709085e-02    1.0188013281e+05
    1.7561223358e-02    1.0190828906e+05
    1.7585720867e-02    1.0194196094e+05
    1.7610201612e-02    1.0198346875e+05
    1.7634663731e-02    1.0204547656e+05
    1.7659107223e-02    1.0211828906e+05
    1.7683532089e-02    1.0221106250e+05
    1.7707940191e-02    1.0232078125e+05
    1.7732329667e-02    1.0244871094e+05
    1.7756698653e-02    1.0258322656e+05
    1.7781050876e-02    1.0273225000e+05
    1.7805384472e-02    1.0288005469e+05
    1.7829699442e-02    1.0303097656e+05
    1.7853999510e-02    1.0316652344e+05
    1.7878280953e-02    1.0328161719e+05
    1.7902545631e-02    1.0336922656e+05
    1.7926793545e-02    1.0342458594e+05
    1.7951028422e-02    1.0344024219e+05
    1.7975246534e-02    1.0341074219e+05
    1.7999447882e-02    1.0333465625e+05
    1.8023636192e-02    1.0321887500e+05
    1.8047811463e-02    1.0305575781e+05
    1.8071975559e-02    1.0284835156e+05
    1.8096126616e-02    1.0260686719e+05
    1.8120266497e-02    1.0234490625e+05
    1.8144397065e-02    1.0206705469e+05
    1.8168520182e-02    1.0178809375e+05
    1.8192630261e-02    1.0152355469e+05
    1.8216732889e-02    1.0128246875e+05
    1.8240824342e-02    1.0107716406e+05
    1.8264908344e-02    1.0089867969e+05
    1.8288983032e-02    1.0075196875e+05
    1.8313048407e-02    1.0063736719e+05
    1.8337102607e-02    1.0055950000e+05
    1.8361147493e-02    1.0050913281e+05
    1.8385183066e-02    1.0048625000e+05
    1.8409207463e-02    1.0048647656e+05
    1.8433224410e-02    1.0050811719e+05
    1.8457230181e-02    1.0054983594e+05
    1.8481226638e-02    1.0060525000e+05
    1.8505210057e-02    1.0066928906e+05
    1.8529184163e-02    1.0074064844e+05
    1.8553148955e-02    1.0081935156e+05
    1.8577100709e-02    1.0089685156e+05
    1.8601041287e-02    1.0098221875e+05
    1.8624972552e-02    1.0106441406e+05
    1.8648892641e-02    1.0115197656e+05
    1.8672801554e-02    1.0122437500e+05
    1.8696699291e-02    1.0129014844e+05
    1.8720587716e-02    1.0135228906e+05
    1.8744463101e-02    1.0140552344e+05
    1.8768329173e-02    1.0145557031e+05
    1.8792184070e-02    1.0149764844e+05
    1.8816027790e-02    1.0153428125e+05
    1.8839860335e-02    1.0157272656e+05
    1.8863683566e-02    1.0160597656e+05
    1.8887493759e-02    1.0164902344e+05
    1.8911294639e-02    1.0169347656e+05
    1.8935086206e-02    1.0173969531e+05
    1.8958866596e-02    1.0179677344e+05
    1.8982635811e-02    1.0185328906e+05
    1.9006397575e-02    1.0190806250e+05
    1.9030146301e-02    1.0197187500e+05
    1.9053885713e-02    1.0202671094e+05
    1.9077615812e-02    1.0208025000e+05
    1.9101334736e-02    1.0212961719e+05
    1.9125042483e-02    1.0217625000e+05
    1.9148740917e-02    1.0222313281e+05
    1.9172428176e-02    1.0226328906e+05
    1.9196104258e-02    1.0230755469e+05
    1.9219771028e-02    1.0235378125e+05
    1.9243424758e-02    1.0239278906e+05
    1.9267069176e-02    1.0243066406e+05
    1.9290700555e-02    1.0247088281e+05
    1.9314322621e-02    1.0250460156e+05
    1.9337931648e-02    1.0253665625e+05
    1.9361529499e-02    1.0256760156e+05
    1.9385114312e-02    1.0259941406e+05
    1.9408687949e-02    1.0262231250e+05
    1.9432250410e-02    1.0264574219e+05
    1.9455801696e-02    1.0266172656e+05
    1.9479339942e-02    1.0267955469e+05
    1.9502865151e-02    1.0268628906e+05
    1.9526379183e-02    1.0269003125e+05
    1.9549878314e-02    1.0269000781e+05
    1.9573366269e-02    1.0268617969e+05
    1.9596841186e-02    1.0267928906e+05
    1.9620303065e-02    1.0266864844e+05
    1.9643751904e-02    1.0265478906e+05
    1.9667187706e-02    1.0263808594e+05
    1.9690606743e-02    1.0261661719e+05
    1.9714014605e-02    1.0258678906e+05
    1.9737409428e-02    1.0255385156e+05
    1.9760791212e-02    1.0251289844e+05
    1.9784159958e-02    1.0246858594e+05
    1.9807513803e-02    1.0242728906e+05
    1.9830854610e-02    1.0237975000e+05
    1.9854182377e-02    1.0233384375e+05
    1.9877497107e-02    1.0229078906e+05
    1.9900798798e-02    1.0224318750e+05
    1.9924087450e-02    1.0220441406e+05
    1.9947361201e-02    1.0216718750e+05
    1.9970623776e-02    1.0213418750e+05
    1.9993871450e-02    1.0211209375e+05
    2.0017107949e-02    1.0209182031e+05
    2.0040329546e-02    1.0207800781e+05
    2.0063538104e-02    1.0206822656e+05
    2.0086731762e-02    1.0207066406e+05
    2.0109914243e-02    1.0208302344e+05
    2.0133081824e-02    1.0209414844e+05
    2.0156236365e-02    1.0211340625e+05
    2.0179376006e-02    1.0214096094e+05
    2.0202504471e-02    1.0217121094e+05
    2.0225618035e-02    1.0219900781e+05
    2.0248720422e-02    1.0223380469e+05
    2.0271807909e-02    1.0226982031e+05
    2.0294882357e-02    1.0229403125e+05
    2.0317947492e-02    1.0231857031e+05
    2.0340997726e-02    1.0234478906e+05
    2.0364036784e-02    1.0236508594e+05
    2.0387060940e-02    1.0237953906e+05
    2.0410073921e-02    1.0239878125e+05
    2.0433073863e-02    1.0240635156e+05
    2.0456060767e-02    1.0241434375e+05
    2.0479036495e-02    1.0241553906e+05
    2.0501999184e-02    1.0240983594e+05
    2.0524948835e-02    1.0241040625e+05
    2.0547885448e-02    1.0239819531e+05
    2.0570809022e-02    1.0238594531e+05
    2.0593719557e-02    1.0236692969e+05
    2.0616617054e-02    1.0234535156e+05
    2.0639499649e-02    1.0232152344e+05
    2.0662369207e-02    1.0230044531e+05
    2.0685223863e-02    1.0227194531e+05
    2.0708063617e-02    1.0224149219e+05
    2.0730890334e-02    1.0221328906e+05
    2.0753700286e-02    1.0217946094e+05
    2.0776495337e-02    1.0214915625e+05
    2.0799275488e-02    1.0211217969e+05
    2.0822042599e-02    1.0208346094e+05
    2.0844791085e-02    1.0204536719e+05
    2.0867524669e-02    1.0201537500e+05
    2.0890241489e-02    1.0198652344e+05
    2.0912945271e-02    1.0196096094e+05
    2.0935632288e-02    1.0193708594e+05
    2.0958306268e-02    1.0192200781e+05
    2.0980965346e-02    1.0190333594e+05
    2.1003607661e-02    1.0188896094e+05
    2.1026238799e-02    1.0187096094e+05
    2.1048855036e-02    1.0185931250e+05
    2.1071458235e-02    1.0185460156e+05
    2.1094048396e-02    1.0185016406e+05
    2.1116625518e-02    1.0184466406e+05
    2.1139191464e-02    1.0184391406e+05
    2.1161744371e-02    1.0184707031e+05
    2.1184286103e-02    1.0185209375e+05
    2.1206818521e-02    1.0185844531e+05
    2.1229337901e-02    1.0185861719e+05
    2.1251846105e-02    1.0186300781e+05
    2.1274344996e-02    1.0186114844e+05
    2.1296832711e-02    1.0186900000e+05
    2.1319312975e-02    1.0187255469e+05
    2.1341778338e-02    1.0187240625e+05
    2.1364232525e-02    1.0187612500e+05
    2.1386675537e-02    1.0187896875e+05
    2.1409107372e-02    1.0187749219e+05
    2.1431528032e-02    1.0187733594e+05
    2.1453931928e-02    1.0188221094e+05
    2.1476324648e-02    1.0188088281e+05
    2.1498700604e-02    1.0187908594e+05
    2.1521063522e-02    1.0188158594e+05
    2.1543409675e-02    1.0187975000e+05
    2.1565740928e-02    1.0187912500e+05
    2.1588053554e-02    1.0188303906e+05
    2.1610351279e-02    1.0188253125e+05
    2.1632634103e-02    1.0188789844e+05
    2.1654898301e-02    1.0189465625e+05
    2.1677147597e-02    1.0189739844e+05
    2.1699378267e-02    1.0189881250e+05
    2.1721594036e-02    1.0190496094e+05
    2.1743793041e-02    1.0191921094e+05
    2.1765975282e-02    1.0193016406e+05
    2.1788140759e-02    1.0193930469e+05
    2.1810289472e-02    1.0194893750e+05
    2.1832419559e-02    1.0195750781e+05
    2.1854531020e-02    1.0196582031e+05
    2.1876627579e-02    1.0197639844e+05
    2.1898705512e-02    1.0198640625e+05
    2.1920768544e-02    1.0199421094e+05
    2.1942811087e-02    1.0200202344e+05
    2.1964838728e-02    1.0200858594e+05
    2.1986849606e-02    1.0201528906e+05
    2.2008845583e-02    1.0202153906e+05
    2.2030822933e-02    1.0202224219e+05
    2.2052785382e-02    1.0202643750e+05
    2.2074732929e-02    1.0202112500e+05
    2.2096665576e-02    1.0201953906e+05
    2.2118583322e-02    1.0202207031e+05
    2.2140489891e-02    1.0202164844e+05
    2.2162377834e-02    1.0202122656e+05
    2.2184254602e-02    1.0201750781e+05
    2.2206118330e-02    1.0201807031e+05
    2.2227969021e-02    1.0201433594e+05
    2.2249806672e-02    1.0201541406e+05
    2.2271629423e-02    1.0201641406e+05
    2.2293440998e-02    1.0201213281e+05
    2.2315241396e-02    1.0200838281e+05
    2.2337028757e-02    1.0200749219e+05
    2.2358803079e-02    1.0200656250e+05
    2.2380566224e-02    1.0201284375e+05
    2.2402318195e-02    1.0201477344e+05
    2.2424057126e-02    1.0202172656e+05
    2.2445784882e-02    1.0202722656e+05
    2.2467501462e-02    1.0203285156e+05
    2.2489206865e-02    1.0203706250e+05
    2.2510899231e-02    1.0204064844e+05
    2.2532582283e-02    1.0205396094e+05
    2.2554252297e-02    1.0205875000e+05
    2.2575911134e-02    1.0206831250e+05
    2.2597560659e-02    1.0207846094e+05
    2.2619199008e-02    1.0208403906e+05
    2.2640828043e-02    1.0208971875e+05
    2.2662445903e-02    1.0209899219e+05
    2.2684050724e-02    1.0210390625e+05
    2.2705646232e-02    1.0210606250e+05
    2.2727232426e-02    1.0211238281e+05
    2.2748809308e-02    1.0211646094e+05
    2.2770375013e-02    1.0212002344e+05
    2.2791929543e-02    1.0212343750e+05
    2.2813472897e-02    1.0212174219e+05
    2.2835006937e-02    1.0212475781e+05
    2.2856531665e-02    1.0212259375e+05
    2.2878047079e-02    1.0212008594e+05
    2.2899549454e-02    1.0212107031e+05
    2.2921044379e-02    1.0212252344e+05
    2.2942528129e-02    1.0211832031e+05
    2.2964000702e-02    1.0211400781e+05
    2.2985465825e-02    1.0211435156e+05
    2.3006917909e-02    1.0210897656e+05
    2.3028360680e-02    1.0210339844e+05
    2.3049792275e-02    1.0210178906e+05
    2.3071214557e-02    1.0210034375e+05
    2.3092625663e-02    1.0209885156e+05
    2.3114029318e-02    1.0208946875e+05
    2.3135419935e-02    1.0208521094e+05
    2.3156799376e-02    1.0208318750e+05
    2.3178169504e-02    1.0208516406e+05
    2.3199530318e-02    1.0208882031e+05
    2.3220879957e-02    1.0208817969e+05
    2.3242218420e-02    1.0208747656e+05
    2.3263547570e-02    1.0208684375e+05
    2.3284865543e-02    1.0208664844e+05
    2.3306174204e-02    1.0208835156e+05
    2.3327469826e-02    1.0209315625e+05
    2.3348756135e-02    1.0209615625e+05
    2.3370031267e-02    1.0209747656e+05
    2.3391297087e-02    1.0210843750e+05
    2.3412553594e-02    1.0211100781e+05
    2.3433798924e-02    1.0212328906e+05
    2.3455033079e-02    1.0212700000e+05
    2.3476256058e-02    1.0213982031e+05
    2.3497469723e-02    1.0215434375e+05
    2.3518672213e-02    1.0216396094e+05
    2.3539865389e-02    1.0217947656e+05
    2.3561049253e-02    1.0219083594e+05
    2.3582221940e-02    1.0220816406e+05
    2.3603385314e-02    1.0222608594e+05
    2.3624535650e-02    1.0224596094e+05
    2.3645676672e-02    1.0226625000e+05
    2.3666808382e-02    1.0228764844e+05
    2.3687927052e-02    1.0230939844e+05
    2.3709038273e-02    1.0232314844e+05
    2.3730138317e-02    1.0234606250e+05
    2.3751227185e-02    1.0236041406e+05
    2.3772306740e-02    1.0238339844e+05
    2.3793375120e-02    1.0239727344e+05
    2.3814432323e-02    1.0240150000e+05
    2.3835480213e-02    1.0241516406e+05
    2.3856516927e-02    1.0241950000e+05
    2.3877544329e-02    1.0242210156e+05
    2.3898560554e-02    1.0242242969e+05
    2.3919565603e-02    1.0241774219e+05
    2.3940561339e-02    1.0240024219e+05
    2.3961545900e-02    1.0238528125e+05
    2.3982519284e-02    1.0236875781e+05
    2.4003483355e-02    1.0234977344e+05
    2.4024436250e-02    1.0231852344e+05
    2.4045377970e-02    1.0227436719e+05
    2.4066310376e-02    1.0223491406e+05
    2.4087233469e-02    1.0218878906e+05
    2.4108145386e-02    1.0214516406e+05
    2.4129044265e-02    1.0210431250e+05
    2.4149935693e-02    1.0206407031e+05
    2.4170814082e-02    1.0202774219e+05
    2.4191683158e-02    1.0199488281e+05
    2.4212542921e-02    1.0196396875e+05
    2.4233391508e-02    1.0194478906e+05
    2.4254228920e-02    1.0193155469e+05
    2.4275057018e-02    1.0192403906e+05
    2.4295873940e-02    1.0193105469e+05
    2.4316681549e-02    1.0195410156e+05
    2.4337477982e-02    1.0197528906e+05
    2.4358265102e-02    1.0200477344e+05
    2.4379042909e-02    1.0203192969e+05
    2.4399809539e-02    1.0206236719e+05
    2.4420566857e-02    1.0209307031e+05
    2.4441312999e-02    1.0212592969e+05
    2.4462047964e-02    1.0215222656e+05
    2.4482775480e-02    1.0218072656e+05
    2.4503491819e-02    1.0221083594e+05
    2.4524198845e-02    1.0223212500e+05
    2.4544894695e-02    1.0225021094e+05
    2.4565581232e-02    1.0226865625e+05
    2.4586258456e-02    1.0228231250e+05
    2.4606924504e-02    1.0229484375e+05
    2.4627581239e-02    1.0230818750e+05
    2.4648228660e-02    1.0232082031e+05
    2.4668866768e-02    1.0233385156e+05
    2.4689495564e-02    1.0233708594e+05
    2.4710113183e-02    1.0234922656e+05
    2.4730721489e-02    1.0235210156e+05
    2.4751318619e-02    1.0236305469e+05
    2.4771906435e-02    1.0237424219e+05
    2.4792486802e-02    1.0238541406e+05
    2.4813055992e-02    1.0239671875e+05
    2.4833614007e-02    1.0240777344e+05
    2.4854162708e-02    1.0241875000e+05
    2.4874702096e-02    1.0242986719e+05
    2.4895232171e-02    1.0243212500e+05
    2.4915752932e-02    1.0244361719e+05
    2.4936262518e-02    1.0245547656e+05
    2.4956764653e-02    1.0246733594e+05
    2.4977253750e-02    1.0247800781e+05
    2.4997735396e-02    1.0248532031e+05
    2.5018205866e-02    1.0248747656e+05
    2.5038668886e-02    1.0248578906e+05
    2.5059120730e-02    1.0248333594e+05
    2.5079563260e-02    1.0247996094e+05
    2.5099996477e-02    1.0247975781e+05
    2.5120420381e-02    1.0247946875e+05
    2.5140833110e-02    1.0247342969e+05
    2.5161236525e-02    1.0247211719e+05
    2.5181630626e-02    1.0247044531e+05
    2.5202017277e-02    1.0246281250e+05
    2.5222390890e-02    1.0246355469e+05
    2.5242757052e-02    1.0245441406e+05
    2.5263112038e-02    1.0244899219e+05
    2.5283459574e-02    1.0244353125e+05
    2.5303795934e-02    1.0243302344e+05
    2.5324124843e-02    1.0242185156e+05
    2.5344440714e-02    1.0241877344e+05
    2.5364749134e-02    1.0240624219e+05
    2.5385048240e-02    1.0240222656e+05
    2.5405339897e-02    1.0239810156e+05
    2.5425618514e-02    1.0238389844e+05
    2.5445887819e-02    1.0237853125e+05
    2.5466147810e-02    1.0236290625e+05
    2.5486400351e-02    1.0234652344e+05
    2.5506639853e-02    1.0233253906e+05
    2.5526873767e-02    1.0232247656e+05
    2.5547094643e-02    1.0231422656e+05
    2.5567308068e-02    1.0231219531e+05
    2.5587510318e-02    1.0230028906e+05
    2.5607703254e-02    1.0229312500e+05
    2.5627886876e-02    1.0228547656e+05
    2.5648061186e-02    1.0226791406e+05
    2.5668226182e-02    1.0225946875e+05
    2.5688380003e-02    1.0225091406e+05
    2.5708526373e-02    1.0224685156e+05
    2.5728661567e-02    1.0224291406e+05
    2.5748789310e-02    1.0223394531e+05
    2.5768904015e-02    1.0222130469e+05
    2.5789011270e-02    1.0221884375e+05
    2.5809109211e-02    1.0221408594e+05
    2.5829195976e-02    1.0221471094e+05
    2.5849273428e-02    1.0221366406e+05
    2.5869343430e-02    1.0221346094e+05
    2.5889402255e-02    1.0221317969e+05
    2.5909451768e-02    1.0221339844e+05
    2.5929493830e-02    1.0220928906e+05
    2.5949522853e-02    1.0221008594e+05
    2.5969544426e-02    1.0221652344e+05
    2.5989556685e-02    1.0221885156e+05
    2.6009559631e-02    1.0221622656e+05
    2.6029553264e-02    1.0221459375e+05
    2.6049537584e-02    1.0222235156e+05
    2.6069512591e-02    1.0222377344e+05
    2.6089478284e-02    1.0222978906e+05
    2.6109432802e-02    1.0222983594e+05
    2.6129379869e-02    1.0223452344e+05
    2.6149315760e-02    1.0223509375e+05
    2.6169244200e-02    1.0223760156e+05
    2.6189163327e-02    1.0224087500e+05
    2.6209073141e-02    1.0224181250e+05
    2.6228975505e-02    1.0225260156e+05
    2.6248866692e-02    1.0225863281e+05
    2.6268748567e-02    1.0226621875e+05
    2.6288621128e-02    1.0226846875e+05
    2.6308484375e-02    1.0227142969e+05
    2.6328338310e-02    1.0227337500e+05
    2.6348184794e-02    1.0227571875e+05
    2.6368021965e-02    1.0227778906e+05
    2.6387847960e-02    1.0228025781e+05
    2.6407664642e-02    1.0228288281e+05
    2.6427472010e-02    1.0228832031e+05
    2.6447271928e-02    1.0229846875e+05
    2.6467062533e-02    1.0230178906e+05
    2.6486843824e-02    1.0230316406e+05
    2.6506617665e-02    1.0230460156e+05
    2.6526380330e-02    1.0231260156e+05
    2.6546133682e-02    1.0231535156e+05
    2.6565877721e-02    1.0231874219e+05
    2.6585612446e-02    1.0232178906e+05
    2.6605339721e-02    1.0232542969e+05
    2.6625057682e-02    1.0232891406e+05
    2.6644766331e-02    1.0233200000e+05
    2.6664465666e-02    1.0233318750e+05
    2.6684155688e-02    1.0233152344e+05
    2.6703836396e-02    1.0234159375e+05
    2.6723509654e-02    1.0233893750e+05
    2.6743173599e-02    1.0233775000e+05
    2.6762828231e-02    1.0234525000e+05
    2.6782475412e-02    1.0235061719e+05
    2.6802113280e-02    1.0234699219e+05
    2.6821739972e-02    1.0235012500e+05
    2.6841359213e-02    1.0235222656e+05
    2.6860967278e-02    1.0235403906e+05
    2.6880569756e-02    1.0235155469e+05
    2.6900164783e-02    1.0234875000e+05
    2.6919748634e-02    1.0234987500e+05
    2.6939325035e-02    1.0235083594e+05
    2.6958892122e-02    1.0235146875e+05
    2.6978449896e-02    1.0235272656e+05
    2.6997998357e-02    1.0235433594e+05
    2.7017539367e-02    1.0235558594e+05
    2.7037071064e-02    1.0235680469e+05
    2.7056595311e-02    1.0235755469e+05
    2.7076110244e-02    1.0235372656e+05
    2.7095617726e-02    1.0235700781e+05
    2.7115115896e-02    1.0236060156e+05
    2.7134604752e-02    1.0236116406e+05
    2.7154086158e-02    1.0235460156e+05
    2.7173558250e-02    1.0235306250e+05
    2.7193021029e-02    1.0236021094e+05
    2.7212476358e-02    1.0236059375e+05
    2.7231922373e-02    1.0235349219e+05
    2.7251357213e-02    1.0235372656e+05
    2.7270786464e-02    1.0235424219e+05
    2.7290204540e-02    1.0235668750e+05
    2.7309613302e-02    1.0235481250e+05
    2.7329014614e-02    1.0235477344e+05
    2.7348404750e-02    1.0235393750e+05
    2.7367785573e-02    1.0235335156e+05
    2.7387158945e-02    1.0235240625e+05
    2.7406521142e-02    1.0235139844e+05
    2.7425874025e-02    1.0234850000e+05
    2.7445219457e-02    1.0234678906e+05
    2.7464553714e-02    1.0234375000e+05
    2.7483878657e-02    1.0234789844e+05
    2.7503194287e-02    1.0234785156e+05
    2.7522502467e-02    1.0234781250e+05
    2.7541799471e-02    1.0234778906e+05
    2.7561087161e-02    1.0234731250e+05
    2.7580365539e-02    1.0234732031e+05
    2.7599634603e-02    1.0234664844e+05
    2.7618894354e-02    1.0234702344e+05
    2.7638144791e-02    1.0235160156e+05
    2.7657385916e-02    1.0235206250e+05
    2.7676619589e-02    1.0234802344e+05
    2.7695843950e-02    1.0234830469e+05
    2.7715058997e-02    1.0234813281e+05
    2.7734262869e-02    1.0235281250e+05
    2.7753459290e-02    1.0235084375e+05
    2.7772648260e-02    1.0235078125e+05
    2.7791827917e-02    1.0234842969e+05
    2.7810998261e-02    1.0234817969e+05
    2.7830159292e-02    1.0234793750e+05
    2.7849311009e-02    1.0235175000e+05
    2.7868455276e-02    1.0234617969e+05
    2.7887590230e-02    1.0234513281e+05
    2.7906717733e-02    1.0234418750e+05
    2.7925835922e-02    1.0234312500e+05
    2.7944946662e-02    1.0233741406e+05
    2.7964048088e-02    1.0233653125e+05
    2.7983140200e-02    1.0233952344e+05
    2.8002224863e-02    1.0233738281e+05
    2.8021300212e-02    1.0233528125e+05
    2.8040368110e-02    1.0232778906e+05
    2.8059426695e-02    1.0232556250e+05
    2.8078475967e-02    1.0231866406e+05
    2.8097519651e-02    1.0231653906e+05
    2.8116554022e-02    1.0231453906e+05
    2.8135580942e-02    1.0231539844e+05
    2.8154598549e-02    1.0231433594e+05
    2.8173606843e-02    1.0231278125e+05
    2.8192607686e-02    1.0231821094e+05
    2.8211599216e-02    1.0231494531e+05
    2.8230583295e-02    1.0230935156e+05
    2.8249559924e-02    1.0231328125e+05
    2.8268527240e-02    1.0231463281e+05
    2.8287487105e-02    1.0231452344e+05
    2.8306435794e-02    1.0231431250e+05
    2.8325378895e-02    1.0231460156e+05
    2.8344312683e-02    1.0232103906e+05
    2.8363237157e-02    1.0232752344e+05
    2.8382156044e-02    1.0233072656e+05
    2.8401065618e-02    1.0233922656e+05
    2.8419965878e-02    1.0234815625e+05
    2.8438858688e-02    1.0235307031e+05
    2.8457742184e-02    1.0235812500e+05
    2.8476616368e-02    1.0236325781e+05
    2.8495483100e-02    1.0237785156e+05
    2.8514338657e-02    1.0238378906e+05
    2.8533160686e-02    1.0238984375e+05
    2.8551930562e-02    1.0240560156e+05
    2.8570635244e-02    1.0241172656e+05
    2.8589271009e-02    1.0241877344e+05
    2.8607837856e-02    1.0241532031e+05
    2.8626350686e-02    1.0242168750e+05
    2.8644818813e-02    1.0242797656e+05
    2.8663259000e-02    1.0244302344e+05
    2.8681686148e-02    1.0244885156e+05
    2.8700113297e-02    1.0244553906e+05
    2.8718546033e-02    1.0245060156e+05
    2.8736986220e-02    1.0245536719e+05
    2.8755431995e-02    1.0245449219e+05
    2.8773877770e-02    1.0245755469e+05
    2.8792314231e-02    1.0246099219e+05
    2.8810730204e-02    1.0246387500e+05
    2.8829116374e-02    1.0246628125e+05
    2.8847465292e-02    1.0246388281e+05
    2.8865773231e-02    1.0246569531e+05
    2.8884036466e-02    1.0245714844e+05
    2.8902258724e-02    1.0245747656e+05
    2.8920443729e-02    1.0245285156e+05
    2.8938598931e-02    1.0245071094e+05
    2.8956729919e-02    1.0244990625e+05
    2.8974846005e-02    1.0244741406e+05
    2.8992949054e-02    1.0244640625e+05
    2.9011042789e-02    1.0244532031e+05
    2.9029129073e-02    1.0244434375e+05
    2.9047204182e-02    1.0243791406e+05
    2.9065268114e-02    1.0243662500e+05
    2.9083315283e-02    1.0243450000e+05
    2.9101338238e-02    1.0243021875e+05
    2.9119335115e-02    1.0242632031e+05
    2.9137304053e-02    1.0242471094e+05
    2.9155241325e-02    1.0242313281e+05
    2.9173148796e-02    1.0242103906e+05
    2.9191024601e-02    1.0241880469e+05
    2.9208874330e-02    1.0241163281e+05
    2.9226697981e-02    1.0241306250e+05
    2.9244501144e-02    1.0241064844e+05
    2.9262285680e-02    1.0240802344e+05
    2.9280053452e-02    1.0240566406e+05
    2.9297806323e-02    1.0240369531e+05
    2.9315544292e-02    1.0240219531e+05
    2.9333265498e-02    1.0240088281e+05
    2.9350971803e-02    1.0239978906e+05
    2.9368655756e-02    1.0240109375e+05
    2.9386319220e-02    1.0240730469e+05
    2.9403960332e-02    1.0240637500e+05
    2.9421577230e-02    1.0240603906e+05
    2.9439168051e-02    1.0239825781e+05
    2.9456734657e-02    1.0239527344e+05
    2.9474277049e-02    1.0240382031e+05
    2.9491795227e-02    1.0240314844e+05
    2.9509292915e-02    1.0240285156e+05
    2.9526771978e-02    1.0240764844e+05
    2.9544232413e-02    1.0241321094e+05
    2.9561674222e-02    1.0241443750e+05
    2.9579099268e-02    1.0241535156e+05
    2.9596509412e-02    1.0241653906e+05
    2.9613900930e-02    1.0241333594e+05
    2.9631273821e-02    1.0241439844e+05
    2.9648626223e-02    1.0241905469e+05
    2.9665958136e-02    1.0241985156e+05
    2.9683271423e-02    1.0242146094e+05
    2.9700560495e-02    1.0242233594e+05
    2.9717829078e-02    1.0242327344e+05
    2.9735075310e-02    1.0242503125e+05
    2.9752301052e-02    1.0242590625e+05
    2.9769508168e-02    1.0241760156e+05
    2.9786696658e-02    1.0241811719e+05
    2.9803866521e-02    1.0241332031e+05
    2.9821017757e-02    1.0240764844e+05
    2.9838152230e-02    1.0240750781e+05
    2.9855269939e-02    1.0240641406e+05
    2.9872370884e-02    1.0240516406e+05
    2.9889453202e-02    1.0240427344e+05
    2.9906518757e-02    1.0239374219e+05
    2.9923565686e-02    1.0239228125e+05
    2.9940593988e-02    1.0238042969e+05
    2.9957601801e-02    1.0236803125e+05
    2.9974590987e-02    1.0236421875e+05
    2.9991561547e-02    1.0235046094e+05
    3.0008511618e-02    1.0234578906e+05
    3.0025444925e-02    1.0234027344e+05
    3.0042361468e-02    1.0233031250e+05
    3.0059259385e-02    1.0231997656e+05
    3.0076142401e-02    1.0231415625e+05
    3.0093006790e-02    1.0230810156e+05
    3.0109854415e-02    1.0229675000e+05
    3.0126683414e-02    1.0228589844e+05
    3.0143497512e-02    1.0228178906e+05
    3.0160292983e-02    1.0228235156e+05
    3.0177071691e-02    1.0227666406e+05
    3.0193833634e-02    1.0227527344e+05
    3.0210576952e-02    1.0227228906e+05
    3.0227303505e-02    1.0227481250e+05
    3.0244011432e-02    1.0227341406e+05
    3.0260702595e-02    1.0227506250e+05
    3.0277376994e-02    1.0227949219e+05
    3.0294034630e-02    1.0228719531e+05
    3.0310675502e-02    1.0229132031e+05
    3.0327299610e-02    1.0229631250e+05
    3.0343905091e-02    1.0230696094e+05
    3.0360495672e-02    1.0231867969e+05
    3.0377071351e-02    1.0232408594e+05
    3.0393628404e-02    1.0233441406e+05
    3.0410168692e-02    1.0233825781e+05
    3.0426690355e-02    1.0234268750e+05
    3.0443195254e-02    1.0235408594e+05
    3.0459685251e-02    1.0236107031e+05
    3.0476156622e-02    1.0236609375e+05
    3.0492611229e-02    1.0237130469e+05
    3.0509050936e-02    1.0237611719e+05
    3.0525473878e-02    1.0238821094e+05
    3.0541881919e-02    1.0238692969e+05
    3.0558273196e-02    1.0239239844e+05
    3.0574647710e-02    1.0239716406e+05
    3.0591005459e-02    1.0240172656e+05
    3.0607348308e-02    1.0239933594e+05
    3.0623674393e-02    1.0240081250e+05
    3.0639985576e-02    1.0240458594e+05
    3.0656279996e-02    1.0239890625e+05
    3.0672557652e-02    1.0240231250e+05
    3.0688818544e-02    1.0240496094e+05
    3.0705062672e-02    1.0240849219e+05
    3.0721291900e-02    1.0241146875e+05
    3.0737506226e-02    1.0241527344e+05
    3.0753703788e-02    1.0241828125e+05
    3.0769886449e-02    1.0242125781e+05
    3.0786054209e-02    1.0241459375e+05
    3.0802207068e-02    1.0241639844e+05
    3.0818343163e-02    1.0241833594e+05
    3.0834466219e-02    1.0241321875e+05
    3.0850572512e-02    1.0241265625e+05
    3.0866663903e-02    1.0242411719e+05
    3.0882738531e-02    1.0242630469e+05
    3.0898798257e-02    1.0242914844e+05
    3.0914843082e-02    1.0242471875e+05
    3.0930871144e-02    1.0242484375e+05
    3.0946886167e-02    1.0242761719e+05
    3.0962884426e-02    1.0243015625e+05
    3.0978867784e-02    1.0244200000e+05
    3.0994836241e-02    1.0243774219e+05
    3.1010789797e-02    1.0243852344e+05
    3.1026728451e-02    1.0244152344e+05
    3.1042650342e-02    1.0244427344e+05
    3.1058559194e-02    1.0244708594e+05
    3.1074455008e-02    1.0245003906e+05
    3.1090334058e-02    1.0245268750e+05
    3.1106200069e-02    1.0245263281e+05
    3.1122051179e-02    1.0245274219e+05
    3.1137887388e-02    1.0245525000e+05
    3.1153710559e-02    1.0245258594e+05
    3.1169516966e-02    1.0245675000e+05
    3.1185310334e-02    1.0245572656e+05
    3.1201090664e-02    1.0245707031e+05
    3.1216854230e-02    1.0246278906e+05
    3.1232602894e-02    1.0246163281e+05
    3.1248336658e-02    1.0246016406e+05
    3.1264055520e-02    1.0246036719e+05
    3.1279761344e-02    1.0246010156e+05
    3.1295452267e-02    1.0245546875e+05
    3.1311132014e-02    1.0245453125e+05
    3.1326796860e-02    1.0245347656e+05
    3.1342446804e-02    1.0245196875e+05
    3.1358085573e-02    1.0245002344e+05
    3.1373709440e-02    1.0244694531e+05
    3.1389318407e-02    1.0244428906e+05
    3.1404916197e-02    1.0244397656e+05
    3.1420499086e-02    1.0244387500e+05
    3.1436067075e-02    1.0244096875e+05
    3.1451620162e-02    1.0243559375e+05
    3.1467158347e-02    1.0243017969e+05
    3.1482685357e-02    1.0242647656e+05
    3.1498193741e-02    1.0242255469e+05
    3.1513694674e-02    1.0241777344e+05
    3.1529176980e-02    1.0241314844e+05
    3.1544648111e-02    1.0240816406e+05
    3.1560108066e-02    1.0240846875e+05
    3.1575553119e-02    1.0240335156e+05
    3.1590986997e-02    1.0239862500e+05
    3.1606405973e-02    1.0238902344e+05
    3.1621813774e-02    1.0238366406e+05
    3.1637206674e-02    1.0237360156e+05
    3.1652588397e-02    1.0236339844e+05
    3.1667951494e-02    1.0235766406e+05
    3.1683307141e-02    1.0235132031e+05
    3.1698647887e-02    1.0234619531e+05
    3.1713977456e-02    1.0234615625e+05
    3.1729292125e-02    1.0234222656e+05
    3.1744595617e-02    1.0233860156e+05
    3.1759884208e-02    1.0233605469e+05
    3.1775161624e-02    1.0233421875e+05
    3.1790427864e-02    1.0233310156e+05
    3.1805675477e-02    1.0233722656e+05
    3.1820915639e-02    1.0233730469e+05
    3.1836140901e-02    1.0234792969e+05
    3.1851354986e-02    1.0234964844e+05
    3.1866557896e-02    1.0236197656e+05
    3.1881745905e-02    1.0237044531e+05
    3.1896922737e-02    1.0238021875e+05
    3.1912088394e-02    1.0238591406e+05
    3.1927239150e-02    1.0239417969e+05
    3.1942378730e-02    1.0240349219e+05
    3.1957507133e-02    1.0241521094e+05
    3.1972620636e-02    1.0242237500e+05
    3.1987726688e-02    1.0242971875e+05
    3.2002814114e-02    1.0243715625e+05
    3.2017890364e-02    1.0244917969e+05
    3.2032959163e-02    1.0245713281e+05
    3.2048013061e-02    1.0246460156e+05
    3.2063052058e-02    1.0247746875e+05
    3.2078083605e-02    1.0248994531e+05
    3.2093103975e-02    1.0249752344e+05
    3.2108109444e-02    1.0250457031e+05
    3.2123107463e-02    1.0251188281e+05
    3.2138090581e-02    1.0251640625e+05
    3.2153062522e-02    1.0252071094e+05
    3.2168023288e-02    1.0252480469e+05
    3.2182972878e-02    1.0252790625e+05
    3.2197911292e-02    1.0253358594e+05
    3.2212834805e-02    1.0253821094e+05
    3.2227750868e-02    1.0254487500e+05
    3.2242652029e-02    1.0254908594e+05
    3.2257542014e-02    1.0254566406e+05
    3.2272424549e-02    1.0254914844e+05
    3.2287292182e-02    1.0255177344e+05
    3.2302148640e-02    1.0254931250e+05
    3.2316997647e-02    1.0254636719e+05
    3.2331831753e-02    1.0254771094e+05
    3.2346658409e-02    1.0254335156e+05
    3.2361470163e-02    1.0253889844e+05
    3.2376270741e-02    1.0253869531e+05
    3.2391063869e-02    1.0253366406e+05
    3.2405842096e-02    1.0253246875e+05
    3.2420612872e-02    1.0253190625e+05
    3.2435368747e-02    1.0253056250e+05
    3.2450113446e-02    1.0252727344e+05
    3.2464850694e-02    1.0252364844e+05
    3.2479573041e-02    1.0252277344e+05
    3.2494287938e-02    1.0251694531e+05
    3.2508991659e-02    1.0251577344e+05
    3.2523684204e-02    1.0251481250e+05
    3.2538365573e-02    1.0251378125e+05
    3.2553035766e-02    1.0251308594e+05
    3.2567698509e-02    1.0251171875e+05
    3.2582346350e-02    1.0251088281e+05
    3.2596986741e-02    1.0250996875e+05
    3.2611619681e-02    1.0250866406e+05
    3.2626237720e-02    1.0250514844e+05
    3.2640848309e-02    1.0250186719e+05
    3.2655447721e-02    1.0250109375e+05
    3.2670035958e-02    1.0250042969e+05
    3.2684613019e-02    1.0250433594e+05
    3.2699178904e-02    1.0250394531e+05
    3.2713737339e-02    1.0250368750e+05
    3.2728284597e-02    1.0250353125e+05
    3.2742820680e-02    1.0250374219e+05
    3.2757349312e-02    1.0250385156e+05
    3.2771866769e-02    1.0250409375e+05
    3.2786373049e-02    1.0250468750e+05
    3.2800871879e-02    1.0250427344e+05
    3.2815355808e-02    1.0250453125e+05
    3.2829832286e-02    1.0250469531e+05
    3.2844301313e-02    1.0250972656e+05
    3.2858755440e-02    1.0251003906e+05
    3.2873202115e-02    1.0251028906e+05
    3.2887637615e-02    1.0250586719e+05
    3.2902065665e-02    1.0250542969e+05
    3.2916482538e-02    1.0250483594e+05
    3.2930891961e-02    1.0250408594e+05
    3.2945290208e-02    1.0250350781e+05
    3.2959677279e-02    1.0250260156e+05
    3.2974056900e-02    1.0250171875e+05
    3.2988425344e-02    1.0250049219e+05
    3.3002786338e-02    1.0249947656e+05
    3.3017136157e-02    1.0249822656e+05
    3.3031478524e-02    1.0249660156e+05
    3.3045809716e-02    1.0249515625e+05
    3.3060129732e-02    1.0249391406e+05
    3.3074442297e-02    1.0249057031e+05
    3.3088747412e-02    1.0249194531e+05
    3.3103041351e-02    1.0249066406e+05
    3.3117324114e-02    1.0248758594e+05
    3.3131599426e-02    1.0248685156e+05
    3.3145863563e-02    1.0248559375e+05
    3.3160120249e-02    1.0248721094e+05
    3.3174365759e-02    1.0248655469e+05
    3.3188603818e-02    1.0248556250e+05
    3.3202830702e-02    1.0248463281e+05
    3.3217050135e-02    1.0248405469e+05
    3.3231258392e-02    1.0248362500e+05
    3.3245459199e-02    1.0248321875e+05
    3.3259648830e-02    1.0248327344e+05
    3.3273831010e-02    1.0248317969e+05
    3.3288005739e-02    1.0248327344e+05
    3.3302169293e-02    1.0248558594e+05
    3.3316325396e-02    1.0249075000e+05
    3.3330474049e-02    1.0249447656e+05
    3.3344611526e-02    1.0249497656e+05
    3.3358741552e-02    1.0249374219e+05
    3.3372864127e-02    1.0249219531e+05
    3.3386975527e-02    1.0249277344e+05
    3.3401079476e-02    1.0249107031e+05
    3.3415172249e-02    1.0249103906e+05
    3.3429257572e-02    1.0249878906e+05
    3.3443335444e-02    1.0249914844e+05
    3.3457405865e-02    1.0249981250e+05
    3.3471468836e-02    1.0250052344e+05
    3.3485524356e-02    1.0249635156e+05
    3.3499568701e-02    1.0249686719e+05
    3.3513605595e-02    1.0250202344e+05
    3.3527631313e-02    1.0250021094e+05
    3.3541653305e-02    1.0250041406e+05
    3.3555664122e-02    1.0250067969e+05
    3.3569667488e-02    1.0250333594e+05
    3.3583663404e-02    1.0250344531e+05
    3.3597648144e-02    1.0250359375e+05
    3.3611625433e-02    1.0250352344e+05
    3.3625595272e-02    1.0250405469e+05
    3.3639557660e-02    1.0250457031e+05
    3.3653512597e-02    1.0250483594e+05
    3.3667460084e-02    1.0250478125e+05
    3.3681396395e-02    1.0250530469e+05
    3.3695328981e-02    1.0250603906e+05
    3.3709254116e-02    1.0250605469e+05
    3.3723168075e-02    1.0250128906e+05
    3.3737078309e-02    1.0250139844e+05
    3.3750977367e-02    1.0249921875e+05
    3.3764872700e-02    1.0250405469e+05
    3.3778760582e-02    1.0250391406e+05
    3.3792637289e-02    1.0250433594e+05
    3.3806510270e-02    1.0249996875e+05
    3.3820372075e-02    1.0250239844e+05
    3.3834230155e-02    1.0250459375e+05
    3.3848077059e-02    1.0250453125e+05
    3.3861916512e-02    1.0250286719e+05
    3.3875752240e-02    1.0250234375e+05
    3.3889576793e-02    1.0250064844e+05
    3.3903393894e-02    1.0249812500e+05
    3.3917203546e-02    1.0250271875e+05
    3.3931009471e-02    1.0250535156e+05
    3.3944804221e-02    1.0250108594e+05
    3.3958595246e-02    1.0249860156e+05
    3.3972378820e-02    1.0250346094e+05
    3.3986151218e-02    1.0250358594e+05
    3.3999919891e-02    1.0250371094e+05
    3.4013681114e-02    1.0250155469e+05
    3.4027434886e-02    1.0250132031e+05
    3.4041177481e-02    1.0250333594e+05
    3.4054916352e-02    1.0250333594e+05
    3.4068647772e-02    1.0249907031e+05
    3.4082375467e-02    1.0250121094e+05
    3.4096091986e-02    1.0250081250e+05
    3.4109804779e-02    1.0250039844e+05
    3.4123510122e-02    1.0250021094e+05
    3.4137208015e-02    1.0249772656e+05
    3.4150898457e-02    1.0250208594e+05
    3.4164581448e-02    1.0249967969e+05
    3.4178260714e-02    1.0249952344e+05
    3.4191932529e-02    1.0249709375e+05
    3.4205596894e-02    1.0249689844e+05
    3.4219253808e-02    1.0249641406e+05
    3.4232903272e-02    1.0249591406e+05
    3.4246545285e-02    1.0249764844e+05
    3.4260183573e-02    1.0249506250e+05
    3.4273810685e-02    1.0249440625e+05
    3.4287434071e-02    1.0249371094e+05
    3.4301050007e-02    1.0249557031e+05
    3.4314658493e-02    1.0249508594e+05
    3.4328263253e-02    1.0249264844e+05
    3.4341860563e-02    1.0249208594e+05
    3.4355450422e-02    1.0249152344e+05
    3.4369036555e-02    1.0249075781e+05
    3.4382611513e-02    1.0249019531e+05
    3.4396182746e-02    1.0248935156e+05
    3.4409742802e-02    1.0248850000e+05
    3.4423299134e-02    1.0248796875e+05
    3.4436848015e-02    1.0248746094e+05
    3.4450393170e-02    1.0248694531e+05
    3.4463927150e-02    1.0248615625e+05
    3.4477461129e-02    1.0248571875e+05
    3.4490987659e-02    1.0248759375e+05
    3.4504506737e-02    1.0248478125e+05
    3.4518022090e-02    1.0248425781e+05
    3.4531529993e-02    1.0248367969e+05
    3.4545030445e-02    1.0248303906e+05
    3.4558523446e-02    1.0248236719e+05
    3.4572008997e-02    1.0248194531e+05
    3.4585487098e-02    1.0248127344e+05
    3.4598957747e-02    1.0248056250e+05
    3.4612424672e-02    1.0247947656e+05
    3.4625884145e-02    1.0247862500e+05
    3.4639336169e-02    1.0247765625e+05
    3.4652780741e-02    1.0247696875e+05
    3.4666225314e-02    1.0247597656e+05
    3.4679658711e-02    1.0247477344e+05
    3.4693088382e-02    1.0247388281e+05
    3.4706510603e-02    1.0247309375e+05
    3.4719929099e-02    1.0247239844e+05
    3.4733340144e-02    1.0247208594e+05
    3.4746743739e-02    1.0247128906e+05
    3.4760143608e-02    1.0247083594e+05
    3.4773536026e-02    1.0247266406e+05
    3.4786924720e-02    1.0247477344e+05
    3.4800305963e-02    1.0247240625e+05
    3.4813679755e-02    1.0247208594e+05
    3.4827046096e-02    1.0247162500e+05
    3.4840408713e-02    1.0247118750e+05
    3.4853763878e-02    1.0246832031e+05
    3.4867111593e-02    1.0246790625e+05
    3.4880455583e-02    1.0246810156e+05
    3.4893795848e-02    1.0246778906e+05
    3.4907124937e-02    1.0246718750e+05
    3.4920454025e-02    1.0246690625e+05
    3.4933775663e-02    1.0247085156e+05
    3.4947093576e-02    1.0246758594e+05
    3.4960404038e-02    1.0246486719e+05
    3.4973710775e-02    1.0246631250e+05
    3.4987010062e-02    1.0246353906e+05
endcurve
