Curveplot
LS-DYNA keyword deck by LS-PrePost                          
Time
Pressure
Defined Connection
Pressure @ 24 #pts=1745
* Minval=     9.9226960938e+04 at time=         0.0130868377
* Maxval=     1.7013950000e+05 at time=         0.0061734300
    0.0000000000e+00    9.9998125000e+04
    3.3812357287e-05    9.9998125000e+04
    6.1326652940e-05    9.9998335938e+04
    8.9102875791e-05    9.9998445312e+04
    1.1682785407e-04    9.9998585938e+04
    1.4461828687e-04    9.9998835938e+04
    1.7236733402e-04    9.9999335938e+04
    2.0016246708e-04    1.0000906250e+05
    2.2795486439e-04    1.0000047656e+05
    2.5574557367e-04    1.0000052344e+05
    2.8353667585e-04    1.0000022656e+05
    3.1133697485e-04    9.9990781250e+04
    3.3912662184e-04    9.9999195312e+04
    3.6691734567e-04    9.9999976562e+04
    3.9470891352e-04    1.0000052344e+05
    4.2249175021e-04    1.0001022656e+05
    4.5027161832e-04    1.0000149219e+05
    4.7804549104e-04    1.0000130469e+05
    5.0581363030e-04    9.9991812500e+04
    5.3357944125e-04    1.0000128125e+05
    5.6134146871e-04    1.0000053906e+05
    5.8909942163e-04    1.0000024219e+05
    6.1685312539e-04    1.0000008594e+05
    6.4460188150e-04    9.9999937500e+04
    6.7234638846e-04    1.0000082031e+05
    7.0008635521e-04    1.0000109375e+05
    7.2782178177e-04    9.9996429688e+04
    7.5555208605e-04    1.0000025781e+05
    7.8327720985e-04    1.0000256250e+05
    8.1099680392e-04    1.0000524219e+05
    8.3871174138e-04    1.0000128125e+05
    8.6642213864e-04    1.0000136719e+05
    8.9412782108e-04    9.9992023438e+04
    9.2182843946e-04    9.9996304688e+04
    9.4952445943e-04    1.0000116406e+05
    9.7721535712e-04    1.0000585156e+05
    1.0049008997e-03    1.0000125781e+05
    1.0325826006e-03    1.0000060156e+05
    1.0602590628e-03    1.0000152344e+05
    1.0879321489e-03    1.0000141406e+05
    1.1155996472e-03    1.0000225781e+05
    1.1432634201e-03    1.0000190625e+05
    1.1709230021e-03    9.9992101562e+04
    1.1985785095e-03    9.9991312500e+04
    1.2262313394e-03    1.0000053125e+05
    1.2538790470e-03    1.0001119531e+05
    1.2815232622e-03    1.0000327344e+05
    1.3091630535e-03    9.9999460938e+04
    1.3368004002e-03    9.9998617188e+04
    1.3644339051e-03    1.0000935156e+05
    1.3920635683e-03    1.0002856250e+05
    1.4196902048e-03    1.0005250000e+05
    1.4473132323e-03    1.0010584375e+05
    1.4749332331e-03    1.0019147656e+05
    1.5025498578e-03    1.0032221094e+05
    1.5301633393e-03    1.0051350000e+05
    1.5577742597e-03    1.0077589844e+05
    1.5853822697e-03    1.0109907031e+05
    1.6129877185e-03    1.0147232031e+05
    1.6405890929e-03    1.0186691406e+05
    1.6681876732e-03    1.0225022656e+05
    1.6957829939e-03    1.0259537500e+05
    1.7233766848e-03    1.0286634375e+05
    1.7509678146e-03    1.0305089844e+05
    1.7785291420e-03    1.0313696094e+05
    1.8060547300e-03    1.0313735156e+05
    1.8335470231e-03    1.0305817969e+05
    1.8610082334e-03    1.0292166406e+05
    1.8884401070e-03    1.0274977344e+05
    1.9158447394e-03    1.0257080469e+05
    1.9432241097e-03    1.0241559375e+05
    1.9705800805e-03    1.0229706250e+05
    1.9979148638e-03    1.0222280469e+05
    2.0252298564e-03    1.0219935156e+05
    2.0525271539e-03    1.0221452344e+05
    2.0798076876e-03    1.0226596094e+05
    2.1070730872e-03    1.0234374219e+05
    2.1343247499e-03    1.0242035156e+05
    2.1615643054e-03    1.0248572656e+05
    2.1887931507e-03    1.0252408594e+05
    2.2160108201e-03    1.0254252344e+05
    2.2432196420e-03    1.0253787500e+05
    2.2704207804e-03    1.0251739844e+05
    2.2976147011e-03    1.0248406250e+05
    2.3248014040e-03    1.0244128125e+05
    2.3519827519e-03    1.0241060156e+05
    2.3791582789e-03    1.0238966406e+05
    2.4063293822e-03    1.0238646875e+05
    2.4334960617e-03    1.0239221094e+05
    2.4606597144e-03    1.0239943750e+05
    2.4878205732e-03    1.0240916406e+05
    2.5149781723e-03    1.0242356250e+05
    2.5421329774e-03    1.0243964844e+05
    2.5692859199e-03    1.0244872656e+05
    2.5964374654e-03    1.0245203125e+05
    2.6235871483e-03    1.0244510156e+05
    2.6507352013e-03    1.0243541406e+05
    2.6778825559e-03    1.0242362500e+05
    2.7050296776e-03    1.0241647656e+05
    2.7321761008e-03    1.0241699219e+05
    2.7593218256e-03    1.0241857031e+05
    2.7864677832e-03    1.0242021094e+05
    2.8136142064e-03    1.0242246875e+05
    2.8407603968e-03    1.0243558594e+05
    2.8679079842e-03    1.0244964844e+05
    2.8950548731e-03    1.0246377344e+05
    2.9222022276e-03    1.0248830469e+05
    2.9493502807e-03    1.0252191406e+05
    2.9764990322e-03    1.0257231250e+05
    3.0036487151e-03    1.0263521094e+05
    3.0307997949e-03    1.0271311719e+05
    3.0579508748e-03    1.0281917969e+05
    3.0851035845e-03    1.0292113281e+05
    3.1122572254e-03    1.0302505469e+05
    3.1394117977e-03    1.0311302344e+05
    3.1665677670e-03    1.0320358594e+05
    3.1937246677e-03    1.0326699219e+05
    3.2208829653e-03    1.0330102344e+05
    3.2480424270e-03    1.0330392969e+05
    3.2752046827e-03    1.0329168750e+05
    3.2952371985e-03    1.0325557031e+05
    3.3145032357e-03    1.0322619531e+05
    3.3336398192e-03    1.0319106250e+05
    3.3528339118e-03    1.0314825000e+05
    3.3720366191e-03    1.0309987500e+05
    3.3912549261e-03    1.0305675781e+05
    3.4104890656e-03    1.0301407031e+05
    3.4297339153e-03    1.0297021094e+05
    3.4486323129e-03    1.0293103906e+05
    3.4671388566e-03    1.0288102344e+05
    3.4854323603e-03    1.0283177344e+05
    3.5036695190e-03    1.0277110156e+05
    3.5219141282e-03    1.0270592969e+05
    3.5401545465e-03    1.0263218750e+05
    3.5583588760e-03    1.0256387500e+05
    3.5765271168e-03    1.0249497656e+05
    3.5946895368e-03    1.0243339844e+05
    3.6139658187e-03    1.0237764844e+05
    3.6330535077e-03    1.0232808594e+05
    3.6521453876e-03    1.0228366406e+05
    3.6699753255e-03    1.0225225781e+05
    3.6875614896e-03    1.0222582031e+05
    3.7050142419e-03    1.0220642969e+05
    3.7224807311e-03    1.0219225781e+05
    3.7400643341e-03    1.0217972656e+05
    3.7577797193e-03    1.0216910156e+05
    3.7755726371e-03    1.0215161719e+05
    3.7933769636e-03    1.0214452344e+05
    3.8111612666e-03    1.0213900000e+05
    3.8289318327e-03    1.0212841406e+05
    3.8467168342e-03    1.0212435156e+05
    3.8645383902e-03    1.0212430469e+05
    3.8824023213e-03    1.0211633594e+05
    3.9002960548e-03    1.0210860156e+05
    3.9182156324e-03    1.0209265625e+05
    3.9361710660e-03    1.0207482031e+05
    3.9541716687e-03    1.0204842969e+05
    3.9733103476e-03    1.0203081250e+05
    3.9924201556e-03    1.0201281250e+05
    4.0104058571e-03    1.0199532031e+05
    4.0284004062e-03    1.0198825000e+05
    4.0464363992e-03    1.0198247656e+05
    4.0656095371e-03    1.0197778906e+05
    4.0847789496e-03    1.0197385156e+05
    4.1039343923e-03    1.0196090625e+05
    4.1219722480e-03    1.0194850781e+05
    4.1400394402e-03    1.0194571094e+05
    4.1591953486e-03    1.0193450000e+05
    4.1784178466e-03    1.0193284375e+05
    4.1976389475e-03    1.0193216406e+05
    4.2168586515e-03    1.0192169531e+05
    4.2360713705e-03    1.0191103906e+05
    4.2552771047e-03    1.0190058594e+05
    4.2744791135e-03    1.0188933594e+05
    4.2936825193e-03    1.0187522656e+05
    4.3128933758e-03    1.0186444531e+05
    4.3321144767e-03    1.0185096094e+05
    4.3513495475e-03    1.0183684375e+05
    4.3705995195e-03    1.0182125781e+05
    4.3898657896e-03    1.0180127344e+05
    4.4091497548e-03    1.0177921875e+05
    4.4284537435e-03    1.0175078906e+05
    4.4477786869e-03    1.0171363281e+05
    4.4671236537e-03    1.0167366406e+05
    4.4864914380e-03    1.0161830469e+05
    4.5058806427e-03    1.0156446094e+05
    4.5252908021e-03    1.0149442969e+05
    4.5447219163e-03    1.0140687500e+05
    4.5641721226e-03    1.0131558594e+05
    4.5836409554e-03    1.0121716406e+05
    4.6031279489e-03    1.0110481250e+05
    4.6226321720e-03    1.0098634375e+05
    4.6421540901e-03    1.0086541406e+05
    4.6616927721e-03    1.0073752344e+05
    4.6812482178e-03    1.0061300781e+05
    4.7008208930e-03    1.0049497656e+05
    4.7204112634e-03    1.0039292969e+05
    4.7400193289e-03    1.0030682031e+05
    4.7596455552e-03    1.0023616406e+05
    4.7792894766e-03    1.0019062500e+05
    4.7989510931e-03    1.0016003906e+05
    4.8186304048e-03    1.0015160156e+05
    4.8383255489e-03    1.0016550781e+05
    4.8580355942e-03    1.0019675781e+05
    4.8777610064e-03    1.0024685156e+05
    4.8975008540e-03    1.0030982031e+05
    4.9172551371e-03    1.0037972656e+05
    4.9370229244e-03    1.0046028906e+05
    4.9568060786e-03    1.0053483594e+05
    4.9766036682e-03    1.0061380469e+05
    4.9964170903e-03    1.0068908594e+05
    5.0162458792e-03    1.0076091406e+05
    5.0360900350e-03    1.0082391406e+05
    5.0559476949e-03    1.0089034375e+05
    5.0758207217e-03    1.0095009375e+05
    5.0957072526e-03    1.0100750000e+05
    5.1156077534e-03    1.0106855469e+05
    5.1355226897e-03    1.0113157031e+05
    5.1554525271e-03    1.0119862500e+05
    5.1753963344e-03    1.0126321875e+05
    5.1953555085e-03    1.0133093750e+05
    5.2153295837e-03    1.0139558594e+05
    5.2353194915e-03    1.0145783594e+05
    5.2553247660e-03    1.0151483594e+05
    5.2753463387e-03    1.0156982031e+05
    5.2953832783e-03    1.0162080469e+05
    5.3154369816e-03    1.0165981250e+05
    5.3355065174e-03    1.0169214844e+05
    5.3555918857e-03    1.0171191406e+05
    5.3756926209e-03    1.0171083594e+05
    5.3958082572e-03    1.0169674219e+05
    5.4159392603e-03    1.0166205469e+05
    5.4360851645e-03    1.0160827344e+05
    5.4562464356e-03    1.0153403906e+05
    5.4764230736e-03    1.0144311719e+05
    5.4966160096e-03    1.0133184375e+05
    5.5168238468e-03    1.0120877344e+05
    5.5370470509e-03    1.0107044531e+05
    5.5572865531e-03    1.0092791406e+05
    5.5775423534e-03    1.0078034375e+05
    5.5978130549e-03    1.0063707031e+05
    5.6181000546e-03    1.0049839844e+05
    5.6384028867e-03    1.0036971094e+05
    5.6587206200e-03    1.0025017969e+05
    5.6790532544e-03    1.0014596094e+05
    5.6994007900e-03    1.0006249219e+05
    5.7197632268e-03    9.9994687500e+04
    5.7401410304e-03    9.9949085938e+04
    5.7605337352e-03    9.9917523438e+04
    5.7809422724e-03    9.9902835938e+04
    5.8013652451e-03    9.9911648438e+04
    5.8218040504e-03    9.9936593750e+04
    5.8422577567e-03    9.9969679688e+04
    5.8627268299e-03    1.0001678906e+05
    5.8832112700e-03    1.0008496094e+05
    5.9037101455e-03    1.0017474219e+05
    5.9242248535e-03    1.0032875781e+05
    5.9447535314e-03    1.0062300781e+05
    5.9641525149e-03    1.0124841406e+05
    5.9830932878e-03    1.0249810156e+05
    6.0020405799e-03    1.0490228906e+05
    6.0210367665e-03    1.0917410156e+05
    6.0400799848e-03    1.1594814844e+05
    6.0591096990e-03    1.2533703906e+05
    6.0781282373e-03    1.3657170312e+05
    6.0972142965e-03    1.4803990625e+05
    6.1162756756e-03    1.5793729688e+05
    6.1353649944e-03    1.6496864062e+05
    6.1544459313e-03    1.6886450000e+05
    6.1734300107e-03    1.7013950000e+05
    6.1924448237e-03    1.6971189062e+05
    6.2115197070e-03    1.6843098438e+05
    6.2306127511e-03    1.6696431250e+05
    6.2497169711e-03    1.6565867188e+05
    6.2688281760e-03    1.6449667188e+05
    6.2879407778e-03    1.6335218750e+05
    6.3070552424e-03    1.6209453125e+05
    6.3261794858e-03    1.6066620312e+05
    6.3453060575e-03    1.5906354688e+05
    6.3644465990e-03    1.5733828125e+05
    6.3835908659e-03    1.5555739062e+05
    6.4027444459e-03    1.5378828125e+05
    6.4219115302e-03    1.5207045312e+05
    6.4410855994e-03    1.5043082812e+05
    6.4602680504e-03    1.4884596875e+05
    6.4794607460e-03    1.4730464062e+05
    6.4986641519e-03    1.4579575000e+05
    6.5178787336e-03    1.4430443750e+05
    6.5371058881e-03    1.4284001562e+05
    6.5563363023e-03    1.4141610938e+05
    6.5755699761e-03    1.4004981250e+05
    6.5948092379e-03    1.3876284375e+05
    6.6140629351e-03    1.3756018750e+05
    6.6333152354e-03    1.3643807812e+05
    6.6525745206e-03    1.3539590625e+05
    6.6718445159e-03    1.3441704688e+05
    6.6911154427e-03    1.3350293750e+05
    6.7104012705e-03    1.3263553125e+05
    6.7296870984e-03    1.3182920312e+05
    6.7489854991e-03    1.3106341406e+05
    6.7682852969e-03    1.3033733594e+05
    6.7875892855e-03    1.2965083594e+05
    6.8069072440e-03    1.2899528125e+05
    6.8262196146e-03    1.2836791406e+05
    6.8455408327e-03    1.2776793750e+05
    6.8648783490e-03    1.2718657031e+05
    6.8842126057e-03    1.2662553906e+05
    6.9035501219e-03    1.2608427344e+05
    6.9228983484e-03    1.2555027344e+05
    6.9422605447e-03    1.2503775000e+05
    6.9616222754e-03    1.2453957031e+05
    6.9809844717e-03    1.2406636719e+05
    7.0003494620e-03    1.2362205469e+05
    7.0197195746e-03    1.2320202344e+05
    7.0390999317e-03    1.2279953906e+05
    7.0584909990e-03    1.2242209375e+05
    7.0778946392e-03    1.2205722656e+05
    7.0973108523e-03    1.2171310156e+05
    7.1167377755e-03    1.2138341406e+05
    7.1361698210e-03    1.2107258594e+05
    7.1556069888e-03    1.2077278125e+05
    7.1750483476e-03    1.2049153906e+05
    7.1944966912e-03    1.2022010156e+05
    7.2139529511e-03    1.1996513281e+05
    7.2334166616e-03    1.1972686719e+05
    7.2528840974e-03    1.1949594531e+05
    7.2723543271e-03    1.1928664844e+05
    7.2918278165e-03    1.1908041406e+05
    7.3113050312e-03    1.1888989844e+05
    7.3307845742e-03    1.1870830469e+05
    7.3502692394e-03    1.1852922656e+05
    7.3697618209e-03    1.1835678125e+05
    7.3892641813e-03    1.1819597656e+05
    7.4087800458e-03    1.1804402344e+05
    7.4282912537e-03    1.1790786719e+05
    7.4477996677e-03    1.1776849219e+05
    7.4673094787e-03    1.1763784375e+05
    7.4868267402e-03    1.1750357031e+05
    7.5063589029e-03    1.1737133594e+05
    7.5258887373e-03    1.1723933594e+05
    7.5454111211e-03    1.1710194531e+05
    7.5649353676e-03    1.1696197656e+05
    7.5844703242e-03    1.1682614844e+05
    7.6040057465e-03    1.1668328906e+05
    7.6235276647e-03    1.1654077344e+05
    7.6430505142e-03    1.1640228906e+05
    7.6625877991e-03    1.1626542969e+05
    7.6821087860e-03    1.1612672656e+05
    7.7016241848e-03    1.1599709375e+05
    7.7211544849e-03    1.1586581250e+05
    7.7406810597e-03    1.1574857031e+05
    7.7602043748e-03    1.1562471094e+05
    7.7797495760e-03    1.1550468750e+05
    7.7992938459e-03    1.1538618750e+05
    7.8188432381e-03    1.1526474219e+05
    7.8384252265e-03    1.1514322656e+05
    7.8580006957e-03    1.1501827344e+05
    7.8775910661e-03    1.1488346875e+05
    7.8972103074e-03    1.1474128906e+05
    7.9168286175e-03    1.1459578906e+05
    7.9364804551e-03    1.1444341406e+05
    7.9561360180e-03    1.1428496094e+05
    7.9758102074e-03    1.1412710156e+05
    7.9955114052e-03    1.1396640625e+05
    8.0152126029e-03    1.1380263281e+05
    8.0349491909e-03    1.1364436719e+05
    8.0546662211e-03    1.1349164844e+05
    8.0743944272e-03    1.1334852344e+05
    8.0941170454e-03    1.1322253125e+05
    8.1138620153e-03    1.1310684375e+05
    8.1336386502e-03    1.1300913281e+05
    8.1534720957e-03    1.1292662500e+05
    8.1733558327e-03    1.1286328125e+05
    8.1932730973e-03    1.1280532031e+05
    8.2132071257e-03    1.1276407031e+05
    8.2330890000e-03    1.1272185156e+05
    8.2529615611e-03    1.1268939844e+05
    8.2727763802e-03    1.1265828125e+05
    8.2926023751e-03    1.1262374219e+05
    8.3124246448e-03    1.1257953906e+05
    8.3322748542e-03    1.1253608594e+05
    8.3521194756e-03    1.1247503906e+05
    8.3719678223e-03    1.1240572656e+05
    8.3917891607e-03    1.1233257031e+05
    8.4116021171e-03    1.1225109375e+05
    8.4314141423e-03    1.1216160156e+05
    8.4512168542e-03    1.1206989844e+05
    8.4710381925e-03    1.1197314844e+05
    8.4908353165e-03    1.1188115625e+05
    8.5106678307e-03    1.1178371094e+05
    8.5304882377e-03    1.1168628125e+05
    8.5503393784e-03    1.1158653906e+05
    8.5699046031e-03    1.1148809375e+05
    8.5892248899e-03    1.1139058594e+05
    8.6083402857e-03    1.1129250781e+05
    8.6272666231e-03    1.1119660156e+05
    8.6460309103e-03    1.1109750781e+05
    8.6646731943e-03    1.1099318750e+05
    8.6832325906e-03    1.1088653906e+05
    8.7017398328e-03    1.1076996875e+05
    8.7202098221e-03    1.1065096094e+05
    8.7386453524e-03    1.1051867969e+05
    8.7570473552e-03    1.1038269531e+05
    8.7753897533e-03    1.1023562500e+05
    8.7936492637e-03    1.1008562500e+05
    8.8118780404e-03    1.0992703125e+05
    8.8300397620e-03    1.0976549219e+05
    8.8481390849e-03    1.0960442969e+05
    8.8662039489e-03    1.0943753906e+05
    8.8842641562e-03    1.0927221094e+05
    8.9023411274e-03    1.0910372656e+05
    8.9204348624e-03    1.0892916406e+05
    8.9385388419e-03    1.0875067969e+05
    8.9566456154e-03    1.0857271094e+05
    8.9747514576e-03    1.0839312500e+05
    8.9928600937e-03    1.0821953125e+05
    9.0109808370e-03    1.0804157031e+05
    9.0291155502e-03    1.0787078125e+05
    9.0472688898e-03    1.0771071875e+05
    9.0654399246e-03    1.0755194531e+05
    9.0836230665e-03    1.0739517969e+05
    9.1018192470e-03    1.0724408594e+05
    9.1200266033e-03    1.0709671094e+05
    9.1382460669e-03    1.0696114844e+05
    9.1564757749e-03    1.0682502344e+05
    9.1747231781e-03    1.0670005469e+05
    9.1929892078e-03    1.0657868750e+05
    9.2112747952e-03    1.0646239844e+05
    9.2295790091e-03    1.0635018750e+05
    9.2479009181e-03    1.0624575781e+05
    9.2662386596e-03    1.0614625000e+05
    9.2845931649e-03    1.0604672656e+05
    9.3029672280e-03    1.0596246094e+05
    9.3213599175e-03    1.0588743750e+05
    9.3397712335e-03    1.0582380469e+05
    9.3582011759e-03    1.0576668750e+05
    9.3766497448e-03    1.0571916406e+05
    9.3951150775e-03    1.0567350000e+05
    9.4135999680e-03    1.0563628906e+05
    9.4321016222e-03    1.0560278906e+05
    9.4506228343e-03    1.0558547656e+05
    9.4691645354e-03    1.0556432031e+05
    9.4877239317e-03    1.0555828125e+05
    9.5063010231e-03    1.0555285156e+05
    9.5248948783e-03    1.0555921875e+05
    9.5435054973e-03    1.0557006250e+05
    9.5621328801e-03    1.0558277344e+05
    9.5807760954e-03    1.0558850781e+05
    9.5994332805e-03    1.0559622656e+05
    9.6181081608e-03    1.0559727344e+05
    9.6367979422e-03    1.0559287500e+05
    9.6555035561e-03    1.0558714844e+05
    9.6742231399e-03    1.0557893750e+05
    9.6929576248e-03    1.0556130469e+05
    9.7117051482e-03    1.0554872656e+05
    9.7304685041e-03    1.0552713281e+05
    9.7492448986e-03    1.0549397656e+05
    9.7680361941e-03    1.0546117969e+05
    9.7868405282e-03    1.0541849219e+05
    9.8056588322e-03    1.0537856250e+05
    9.8244920373e-03    1.0533202344e+05
    9.8433364183e-03    1.0528360156e+05
    9.8621929064e-03    1.0523419531e+05
    9.8810633644e-03    1.0518897656e+05
    9.8999459296e-03    1.0513646875e+05
    9.9188406020e-03    1.0509462500e+05
    9.9377483130e-03    1.0505171875e+05
    9.9566690624e-03    1.0501727344e+05
    9.9756028503e-03    1.0498652344e+05
    9.9945487455e-03    1.0496261719e+05
    1.0013507679e-02    1.0494290625e+05
    1.0032479651e-02    1.0491990625e+05
    1.0051463731e-02    1.0489835156e+05
    1.0070459917e-02    1.0487710156e+05
    1.0089469142e-02    1.0486188281e+05
    1.0108492337e-02    1.0483446875e+05
    1.0127528571e-02    1.0481092969e+05
    1.0146577843e-02    1.0477766406e+05
    1.0165639222e-02    1.0474817969e+05
    1.0184712708e-02    1.0470717969e+05
    1.0203798302e-02    1.0465850781e+05
    1.0222896002e-02    1.0460152344e+05
    1.0242006741e-02    1.0453558594e+05
    1.0261129588e-02    1.0445578125e+05
    1.0280264542e-02    1.0437571094e+05
    1.0299413465e-02    1.0428865625e+05
    1.0318575427e-02    1.0419241406e+05
    1.0337748565e-02    1.0409810156e+05
    1.0356934741e-02    1.0399742969e+05
    1.0376133956e-02    1.0389653906e+05
    1.0395346209e-02    1.0379540625e+05
    1.0414571501e-02    1.0370647656e+05
    1.0433809832e-02    1.0362228906e+05
    1.0453061201e-02    1.0355683594e+05
    1.0472324677e-02    1.0350412500e+05
    1.0491601191e-02    1.0347350781e+05
    1.0510892607e-02    1.0344706250e+05
    1.0530196130e-02    1.0343055469e+05
    1.0549513623e-02    1.0341460156e+05
    1.0568842292e-02    1.0339877344e+05
    1.0588183999e-02    1.0338159375e+05
    1.0607538745e-02    1.0336859375e+05
    1.0626907460e-02    1.0334894531e+05
    1.0646289214e-02    1.0332663281e+05
    1.0665684007e-02    1.0329549219e+05
    1.0685092770e-02    1.0325191406e+05
    1.0704516433e-02    1.0320674219e+05
    1.0723951273e-02    1.0316122656e+05
    1.0743400082e-02    1.0311450781e+05
    1.0762862861e-02    1.0306733594e+05
    1.0782338679e-02    1.0302678125e+05
    1.0801829398e-02    1.0298632031e+05
    1.0821334086e-02    1.0295803125e+05
    1.0840852745e-02    1.0293080469e+05
    1.0860386305e-02    1.0290353906e+05
    1.0879932903e-02    1.0287727344e+05
    1.0899493471e-02    1.0284192969e+05
    1.0919069871e-02    1.0280627344e+05
    1.0938662104e-02    1.0276553906e+05
    1.0958270170e-02    1.0272413281e+05
    1.0977892205e-02    1.0266814844e+05
    1.0997531936e-02    1.0262985156e+05
    1.1017187499e-02    1.0258239844e+05
    1.1036860757e-02    1.0254471094e+05
    1.1056551710e-02    1.0251202344e+05
    1.1076259427e-02    1.0248461719e+05
    1.1095987633e-02    1.0245444531e+05
    1.1115733534e-02    1.0242092969e+05
    1.1135498993e-02    1.0238758594e+05
    1.1155283079e-02    1.0235539844e+05
    1.1175086722e-02    1.0232324219e+05
    1.1194912717e-02    1.0228174219e+05
    1.1214758269e-02    1.0224994531e+05
    1.1234625243e-02    1.0220803906e+05
    1.1254511774e-02    1.0217514844e+05
    1.1274418794e-02    1.0214177344e+05
    1.1294347234e-02    1.0210396094e+05
    1.1314296164e-02    1.0207457031e+05
    1.1334266514e-02    1.0203146094e+05
    1.1354257353e-02    1.0199683594e+05
    1.1374268681e-02    1.0195183594e+05
    1.1394302361e-02    1.0189852344e+05
    1.1414355598e-02    1.0184790625e+05
    1.1434430256e-02    1.0179868750e+05
    1.1454525404e-02    1.0174785156e+05
    1.1474640109e-02    1.0169694531e+05
    1.1494777165e-02    1.0165059375e+05
    1.1514934711e-02    1.0160450781e+05
    1.1535113677e-02    1.0155272656e+05
    1.1555313133e-02    1.0151011719e+05
    1.1575534008e-02    1.0146753125e+05
    1.1595774442e-02    1.0143266406e+05
    1.1616035365e-02    1.0140936719e+05
    1.1636316776e-02    1.0140321094e+05
    1.1656619608e-02    1.0141777344e+05
    1.1676942930e-02    1.0146507031e+05
    1.1697287671e-02    1.0154641406e+05
    1.1717652902e-02    1.0167997656e+05
    1.1738038622e-02    1.0188447656e+05
    1.1758443899e-02    1.0217946875e+05
    1.1778870597e-02    1.0258109375e+05
    1.1799318716e-02    1.0311866406e+05
    1.1819788255e-02    1.0380889844e+05
    1.1840280145e-02    1.0465802344e+05
    1.1860790662e-02    1.0566600781e+05
    1.1881321669e-02    1.0680272656e+05
    1.1901874095e-02    1.0801333594e+05
    1.1922447011e-02    1.0922278906e+05
    1.1943042278e-02    1.1033010156e+05
    1.1963658035e-02    1.1125992969e+05
    1.1984295212e-02    1.1194796875e+05
    1.2004952878e-02    1.1234808594e+05
    1.2025631964e-02    1.1245952344e+05
    1.2046331540e-02    1.1230641406e+05
    1.2067052536e-02    1.1193125000e+05
    1.2087795883e-02    1.1138453906e+05
    1.2108558789e-02    1.1072907031e+05
    1.2129344046e-02    1.1001036719e+05
    1.2150149792e-02    1.0929591406e+05
    1.2170976959e-02    1.0861971875e+05
    1.2191825546e-02    1.0801744531e+05
    1.2212695554e-02    1.0751288281e+05
    1.2233586982e-02    1.0709671094e+05
    1.2254500762e-02    1.0675344531e+05
    1.2275436893e-02    1.0643890625e+05
    1.2296394445e-02    1.0612103125e+05
    1.2317374349e-02    1.0576458594e+05
    1.2338375673e-02    1.0534947656e+05
    1.2359398417e-02    1.0488410156e+05
    1.2380442582e-02    1.0437165625e+05
    1.2401508167e-02    1.0383977344e+05
    1.2422595173e-02    1.0329208594e+05
    1.2443703599e-02    1.0276546094e+05
    1.2464834377e-02    1.0227522656e+05
    1.2485986575e-02    1.0183716406e+05
    1.2507158332e-02    1.0145778125e+05
    1.2528351508e-02    1.0114558594e+05
    1.2549565174e-02    1.0089224219e+05
    1.2570801191e-02    1.0068677344e+05
    1.2592058629e-02    1.0051212500e+05
    1.2613337487e-02    1.0035810156e+05
    1.2634636834e-02    1.0021428906e+05
    1.2655957602e-02    1.0007721875e+05
    1.2677297927e-02    9.9952210938e+04
    1.2698660605e-02    9.9849273438e+04
    1.2720043771e-02    9.9751898438e+04
    1.2741449289e-02    9.9672242188e+04
    1.2762876227e-02    9.9611210938e+04
    1.2784325518e-02    9.9572875000e+04
    1.2805794366e-02    9.9553585938e+04
    1.2827285565e-02    9.9562289062e+04
    1.2848797254e-02    9.9581257812e+04
    1.2870330364e-02    9.9604835938e+04
    1.2891885825e-02    9.9624367188e+04
    1.2913462706e-02    9.9627781250e+04
    1.2935061008e-02    9.9609882812e+04
    1.2956679799e-02    9.9573656250e+04
    1.2978320010e-02    9.9512085938e+04
    1.2999981642e-02    9.9445085938e+04
    1.3021663763e-02    9.9369398438e+04
    1.3043368235e-02    9.9304195312e+04
    1.3065092266e-02    9.9251656250e+04
    1.3086837716e-02    9.9226960938e+04
    1.3108605519e-02    9.9234226562e+04
    1.3130392879e-02    9.9275226562e+04
    1.3152201660e-02    9.9331835938e+04
    1.3174032792e-02    9.9415242188e+04
    1.3195885345e-02    9.9492898438e+04
    1.3217759319e-02    9.9561398438e+04
    1.3239653781e-02    9.9615023438e+04
    1.3261569664e-02    9.9644375000e+04
    1.3283506967e-02    9.9646414062e+04
    1.3305463828e-02    9.9635156250e+04
    1.3327440247e-02    9.9610507812e+04
    1.3349435292e-02    9.9582523438e+04
    1.3371448033e-02    9.9550054688e+04
    1.3393475674e-02    9.9525281250e+04
    1.3415516354e-02    9.9516250000e+04
    1.3437564485e-02    9.9520656250e+04
    1.3459613547e-02    9.9534039062e+04
    1.3481658883e-02    9.9554945312e+04
    1.3503690250e-02    9.9574726562e+04
    1.3525702059e-02    9.9595648438e+04
    1.3547683135e-02    9.9607250000e+04
    1.3569628820e-02    9.9616414062e+04
    1.3591531664e-02    9.9623492188e+04
    1.3613392599e-02    9.9630585938e+04
    1.3635210693e-02    9.9638773438e+04
    1.3656994328e-02    9.9646968750e+04
    1.3678749092e-02    9.9656039062e+04
    1.3700488023e-02    9.9670617188e+04
    1.3722228818e-02    9.9687257812e+04
    1.3743981719e-02    9.9711976562e+04
    1.3765762560e-02    9.9740054688e+04
    1.3787578791e-02    9.9778875000e+04
    1.3809437864e-02    9.9821023438e+04
    1.3831341639e-02    9.9864757812e+04
    1.3853288256e-02    9.9917179688e+04
    1.3875273056e-02    9.9967554688e+04
    1.3897285797e-02    1.0002489844e+05
    1.3919321820e-02    1.0007606250e+05
    1.3941374607e-02    1.0013333594e+05
    1.3963440433e-02    1.0018891406e+05
    1.3985517435e-02    1.0024190625e+05
    1.4007603750e-02    1.0029557031e+05
    1.4029704034e-02    1.0035518750e+05
    1.4051820152e-02    1.0041053906e+05
    1.4073957689e-02    1.0046365625e+05
    1.4096121304e-02    1.0051453125e+05
    1.4118315652e-02    1.0056550781e+05
    1.4140545391e-02    1.0061050000e+05
    1.4162814245e-02    1.0065303125e+05
    1.4185124077e-02    1.0068668750e+05
    1.4207473956e-02    1.0071390625e+05
    1.4229862019e-02    1.0073384375e+05
    1.4252286404e-02    1.0075105469e+05
    1.4274741523e-02    1.0076583594e+05
    1.4297228307e-02    1.0078050781e+05
    1.4319745824e-02    1.0078289844e+05
    1.4342290349e-02    1.0078984375e+05
    1.4364863746e-02    1.0078418750e+05
    1.4387467876e-02    1.0077514844e+05
    1.4410103671e-02    1.0076846094e+05
    1.4432771131e-02    1.0075821094e+05
    1.4455472119e-02    1.0074952344e+05
    1.4478209428e-02    1.0073400000e+05
    1.4500979334e-02    1.0072071875e+05
    1.4523783699e-02    1.0070180469e+05
    1.4546621591e-02    1.0068052344e+05
    1.4569494873e-02    1.0066024219e+05
    1.4592399821e-02    1.0063793750e+05
    1.4615339227e-02    1.0062377344e+05
    1.4638305642e-02    1.0060827344e+05
    1.4661304653e-02    1.0058288281e+05
    1.4684336260e-02    1.0056253125e+05
    1.4707398601e-02    1.0054210156e+05
    1.4730494469e-02    1.0052821094e+05
    1.4753622934e-02    1.0051534375e+05
    1.4776783995e-02    1.0050378906e+05
    1.4799979515e-02    1.0050213281e+05
    1.4823205769e-02    1.0050193750e+05
    1.4846466482e-02    1.0049768750e+05
    1.4869757928e-02    1.0049833594e+05
    1.4893081971e-02    1.0050249219e+05
    1.4916437678e-02    1.0050702344e+05
    1.4939822257e-02    1.0051034375e+05
    1.4963239431e-02    1.0051502344e+05
    1.4986685477e-02    1.0052234375e+05
    1.5010161325e-02    1.0052433594e+05
    1.5033668838e-02    1.0053360156e+05
    1.5057205223e-02    1.0054803906e+05
    1.5080772340e-02    1.0057063281e+05
    1.5104367398e-02    1.0060088281e+05
    1.5127992257e-02    1.0063791406e+05
    1.5151646920e-02    1.0068461719e+05
    1.5175330453e-02    1.0074171094e+05
    1.5199041925e-02    1.0079116406e+05
    1.5222782269e-02    1.0084891406e+05
    1.5246548690e-02    1.0090465625e+05
    1.5270343982e-02    1.0095797656e+05
    1.5294168144e-02    1.0100878125e+05
    1.5318016522e-02    1.0105027344e+05
    1.5341891907e-02    1.0108456250e+05
    1.5365792438e-02    1.0111259375e+05
    1.5389721841e-02    1.0113097656e+05
    1.5413676389e-02    1.0114208594e+05
    1.5437657945e-02    1.0114521875e+05
    1.5461664647e-02    1.0114914844e+05
    1.5485695563e-02    1.0115209375e+05
    1.5509752557e-02    1.0115283594e+05
    1.5533835627e-02    1.0114885156e+05
    1.5557944775e-02    1.0115074219e+05
    1.5582079068e-02    1.0115285156e+05
    1.5606240369e-02    1.0115787500e+05
    1.5630424023e-02    1.0116797656e+05
    1.5654634684e-02    1.0118115625e+05
    1.5678871423e-02    1.0119952344e+05
    1.5703132376e-02    1.0122181250e+05
    1.5727419406e-02    1.0124502344e+05
    1.5751728788e-02    1.0126869531e+05
    1.5776060522e-02    1.0129260156e+05
    1.5800418332e-02    1.0132505469e+05
    1.5824800357e-02    1.0135855469e+05
    1.5849204734e-02    1.0138691406e+05
    1.5873633325e-02    1.0141558594e+05
    1.5898084268e-02    1.0144010156e+05
    1.5922557563e-02    1.0146907031e+05
    1.5947058797e-02    1.0149856250e+05
    1.5971582383e-02    1.0151534375e+05
    1.5996130183e-02    1.0152716406e+05
    1.6020702198e-02    1.0154247656e+05
    1.6045298427e-02    1.0155105469e+05
    1.6069920734e-02    1.0155663281e+05
    1.6094569117e-02    1.0156742969e+05
    1.6119243577e-02    1.0157185156e+05
    1.6143942252e-02    1.0157225000e+05
    1.6168667004e-02    1.0157142969e+05
    1.6193419695e-02    1.0155866406e+05
    1.6218200326e-02    1.0155177344e+05
    1.6243007034e-02    1.0154115625e+05
    1.6267839819e-02    1.0153439844e+05
    1.6292702407e-02    1.0152760156e+05
    1.6317596659e-02    1.0151756250e+05
    1.6342513263e-02    1.0150989844e+05
    1.6367461532e-02    1.0150753906e+05
    1.6392435879e-02    1.0150575781e+05
    1.6417443752e-02    1.0150671875e+05
    1.6442479566e-02    1.0151022656e+05
    1.6467543319e-02    1.0152175781e+05
    1.6492636874e-02    1.0153924219e+05
    1.6517756507e-02    1.0156010156e+05
    1.6542907804e-02    1.0158528125e+05
    1.6568088904e-02    1.0161741406e+05
    1.6593271866e-02    1.0164664844e+05
    1.6618426889e-02    1.0168237500e+05
    1.6643559560e-02    1.0171414844e+05
    1.6668669879e-02    1.0174847656e+05
    1.6693757847e-02    1.0177878125e+05
    1.6718825325e-02    1.0180911719e+05
    1.6743874177e-02    1.0183266406e+05
    1.6768900678e-02    1.0185339844e+05
    1.6793908551e-02    1.0187177344e+05
    1.6818899661e-02    1.0188297656e+05
    1.6843874007e-02    1.0190228906e+05
    1.6868829727e-02    1.0190016406e+05
    1.6893770546e-02    1.0190566406e+05
    1.6918692738e-02    1.0189867969e+05
    1.6943598166e-02    1.0189033594e+05
    1.6968490556e-02    1.0188950781e+05
    1.6993366182e-02    1.0187885156e+05
    1.7018226907e-02    1.0187189844e+05
    1.7043072730e-02    1.0186235156e+05
    1.7067901790e-02    1.0185171875e+05
    1.7092714086e-02    1.0184658594e+05
    1.7117511481e-02    1.0184141406e+05
    1.7142292112e-02    1.0183260156e+05
    1.7167057842e-02    1.0183374219e+05
    1.7191808671e-02    1.0183571875e+05
    1.7216544598e-02    1.0183187500e+05
    1.7241263762e-02    1.0182706250e+05
    1.7265968025e-02    1.0183018750e+05
    1.7290659249e-02    1.0183402344e+05
    1.7315333709e-02    1.0183322656e+05
    1.7339993268e-02    1.0183615625e+05
    1.7364639789e-02    1.0183957031e+05
    1.7389267683e-02    1.0183775000e+05
    1.7413880676e-02    1.0183944531e+05
    1.7438478768e-02    1.0183702344e+05
    1.7463061959e-02    1.0184210156e+05
    1.7487626523e-02    1.0185686719e+05
    1.7512176186e-02    1.0186355469e+05
    1.7536709085e-02    1.0187699219e+05
    1.7561223358e-02    1.0188916406e+05
    1.7585720867e-02    1.0192189844e+05
    1.7610201612e-02    1.0196277344e+05
    1.7634663731e-02    1.0202290625e+05
    1.7659107223e-02    1.0208933594e+05
    1.7683532089e-02    1.0217053125e+05
    1.7707940191e-02    1.0227840625e+05
    1.7732329667e-02    1.0239437500e+05
    1.7756698653e-02    1.0252847656e+05
    1.7781050876e-02    1.0268256250e+05
    1.7805384472e-02    1.0283594531e+05
    1.7829699442e-02    1.0298884375e+05
    1.7853999510e-02    1.0312930469e+05
    1.7878280953e-02    1.0324978125e+05
    1.7902545631e-02    1.0334999219e+05
    1.7926793545e-02    1.0341933594e+05
    1.7951028422e-02    1.0344450000e+05
    1.7975246534e-02    1.0342788281e+05
    1.7999447882e-02    1.0337222656e+05
    1.8023636192e-02    1.0327793750e+05
    1.8047811463e-02    1.0312662500e+05
    1.8071975559e-02    1.0293347656e+05
    1.8096126616e-02    1.0270300000e+05
    1.8120266497e-02    1.0243794531e+05
    1.8144397065e-02    1.0215862500e+05
    1.8168520182e-02    1.0188208594e+05
    1.8192630261e-02    1.0161014844e+05
    1.8216732889e-02    1.0136566406e+05
    1.8240824342e-02    1.0114414844e+05
    1.8264908344e-02    1.0095221094e+05
    1.8288983032e-02    1.0079952344e+05
    1.8313048407e-02    1.0067792969e+05
    1.8337102607e-02    1.0058838281e+05
    1.8361147493e-02    1.0052906250e+05
    1.8385183066e-02    1.0049816406e+05
    1.8409207463e-02    1.0049621094e+05
    1.8433224410e-02    1.0050872656e+05
    1.8457230181e-02    1.0053896875e+05
    1.8481226638e-02    1.0058761719e+05
    1.8505210057e-02    1.0064621094e+05
    1.8529184163e-02    1.0071594531e+05
    1.8553148955e-02    1.0079002344e+05
    1.8577100709e-02    1.0087262500e+05
    1.8601041287e-02    1.0095460156e+05
    1.8624972552e-02    1.0103912500e+05
    1.8648892641e-02    1.0112443750e+05
    1.8672801554e-02    1.0119733594e+05
    1.8696699291e-02    1.0126846094e+05
    1.8720587716e-02    1.0133435156e+05
    1.8744463101e-02    1.0139150000e+05
    1.8768329173e-02    1.0144110156e+05
    1.8792184070e-02    1.0148341406e+05
    1.8816027790e-02    1.0152084375e+05
    1.8839860335e-02    1.0155960156e+05
    1.8863683566e-02    1.0160358594e+05
    1.8887493759e-02    1.0164666406e+05
    1.8911294639e-02    1.0168799219e+05
    1.8935086206e-02    1.0174206250e+05
    1.8958866596e-02    1.0179071094e+05
    1.8982635811e-02    1.0185108594e+05
    1.9006397575e-02    1.0191302344e+05
    1.9030146301e-02    1.0197764844e+05
    1.9053885713e-02    1.0203409375e+05
    1.9077615812e-02    1.0208192969e+05
    1.9101334736e-02    1.0213916406e+05
    1.9125042483e-02    1.0218778906e+05
    1.9148740917e-02    1.0223583594e+05
    1.9172428176e-02    1.0228371094e+05
    1.9196104258e-02    1.0232237500e+05
    1.9219771028e-02    1.0236858594e+05
    1.9243424758e-02    1.0240444531e+05
    1.9267069176e-02    1.0243166406e+05
    1.9290700555e-02    1.0247166406e+05
    1.9314322621e-02    1.0250146875e+05
    1.9337931648e-02    1.0252847656e+05
    1.9361529499e-02    1.0254935156e+05
    1.9385114312e-02    1.0256253906e+05
    1.9408687949e-02    1.0257241406e+05
    1.9432250410e-02    1.0258400000e+05
    1.9455801696e-02    1.0258747656e+05
    1.9479339942e-02    1.0258678906e+05
    1.9502865151e-02    1.0258236719e+05
    1.9526379183e-02    1.0256728906e+05
    1.9549878314e-02    1.0255256250e+05
    1.9573366269e-02    1.0253638281e+05
    1.9596841186e-02    1.0251813281e+05
    1.9620303065e-02    1.0249887500e+05
    1.9643751904e-02    1.0247291406e+05
    1.9667187706e-02    1.0245202344e+05
    1.9690606743e-02    1.0242181250e+05
    1.9714014605e-02    1.0239493750e+05
    1.9737409428e-02    1.0236521094e+05
    1.9760791212e-02    1.0233909375e+05
    1.9784159958e-02    1.0231775781e+05
    1.9807513803e-02    1.0229425781e+05
    1.9830854610e-02    1.0228115625e+05
    1.9854182377e-02    1.0225833594e+05
    1.9877497107e-02    1.0224738281e+05
    1.9900798798e-02    1.0223516406e+05
    1.9924087450e-02    1.0223039844e+05
    1.9947361201e-02    1.0223991406e+05
    1.9970623776e-02    1.0224683594e+05
    1.9993871450e-02    1.0225103906e+05
    2.0017107949e-02    1.0226199219e+05
    2.0040329546e-02    1.0227575781e+05
    2.0063538104e-02    1.0229164844e+05
    2.0086731762e-02    1.0231053125e+05
    2.0109914243e-02    1.0233478125e+05
    2.0133081824e-02    1.0235091406e+05
    2.0156236365e-02    1.0237434375e+05
    2.0179376006e-02    1.0239677344e+05
    2.0202504471e-02    1.0241691406e+05
    2.0225618035e-02    1.0243164844e+05
    2.0248720422e-02    1.0244974219e+05
    2.0271807909e-02    1.0246171094e+05
    2.0294882357e-02    1.0247047656e+05
    2.0317947492e-02    1.0247764844e+05
    2.0340997726e-02    1.0248264844e+05
    2.0364036784e-02    1.0247611719e+05
    2.0387060940e-02    1.0247605469e+05
    2.0410073921e-02    1.0246303906e+05
    2.0433073863e-02    1.0244113281e+05
    2.0456060767e-02    1.0242672656e+05
    2.0479036495e-02    1.0240160156e+05
    2.0501999184e-02    1.0237649219e+05
    2.0524948835e-02    1.0235342969e+05
    2.0547885448e-02    1.0232088281e+05
    2.0570809022e-02    1.0229018750e+05
    2.0593719557e-02    1.0225802344e+05
    2.0616617054e-02    1.0221996094e+05
    2.0639499649e-02    1.0218671094e+05
    2.0662369207e-02    1.0215024219e+05
    2.0685223863e-02    1.0212022656e+05
    2.0708063617e-02    1.0208109375e+05
    2.0730890334e-02    1.0205074219e+05
    2.0753700286e-02    1.0201707031e+05
    2.0776495337e-02    1.0199341406e+05
    2.0799275488e-02    1.0197055469e+05
    2.0822042599e-02    1.0194452344e+05
    2.0844791085e-02    1.0191591406e+05
    2.0867524669e-02    1.0190149219e+05
    2.0890241489e-02    1.0188189844e+05
    2.0912945271e-02    1.0186912500e+05
    2.0935632288e-02    1.0185827344e+05
    2.0958306268e-02    1.0185040625e+05
    2.0980965346e-02    1.0184794531e+05
    2.1003607661e-02    1.0184714844e+05
    2.1026238799e-02    1.0184877344e+05
    2.1048855036e-02    1.0184496875e+05
    2.1071458235e-02    1.0184684375e+05
    2.1094048396e-02    1.0185134375e+05
    2.1116625518e-02    1.0185987500e+05
    2.1139191464e-02    1.0186778906e+05
    2.1161744371e-02    1.0186821094e+05
    2.1184286103e-02    1.0187678125e+05
    2.1206818521e-02    1.0187572656e+05
    2.1229337901e-02    1.0187853125e+05
    2.1251846105e-02    1.0188233594e+05
    2.1274344996e-02    1.0188082031e+05
    2.1296832711e-02    1.0187946094e+05
    2.1319312975e-02    1.0187686719e+05
    2.1341778338e-02    1.0188339844e+05
    2.1364232525e-02    1.0187300781e+05
    2.1386675537e-02    1.0186599219e+05
    2.1409107372e-02    1.0186446094e+05
    2.1431528032e-02    1.0186359375e+05
    2.1453931928e-02    1.0186560156e+05
    2.1476324648e-02    1.0186389844e+05
    2.1498700604e-02    1.0186242969e+05
    2.1521063522e-02    1.0187062500e+05
    2.1543409675e-02    1.0187062500e+05
    2.1565740928e-02    1.0187163281e+05
    2.1588053554e-02    1.0187853906e+05
    2.1610351279e-02    1.0188668750e+05
    2.1632634103e-02    1.0189655469e+05
    2.1654898301e-02    1.0190689844e+05
    2.1677147597e-02    1.0192235156e+05
    2.1699378267e-02    1.0192967969e+05
    2.1721594036e-02    1.0194214844e+05
    2.1743793041e-02    1.0195405469e+05
    2.1765975282e-02    1.0196182031e+05
    2.1788140759e-02    1.0196462500e+05
    2.1810289472e-02    1.0197452344e+05
    2.1832419559e-02    1.0198416406e+05
    2.1854531020e-02    1.0199146094e+05
    2.1876627579e-02    1.0200738281e+05
    2.1898705512e-02    1.0201312500e+05
    2.1920768544e-02    1.0201374219e+05
    2.1942811087e-02    1.0200921094e+05
    2.1964838728e-02    1.0201264844e+05
    2.1986849606e-02    1.0201066406e+05
    2.2008845583e-02    1.0201265625e+05
    2.2030822933e-02    1.0201143750e+05
    2.2052785382e-02    1.0200961719e+05
    2.2074732929e-02    1.0200078125e+05
    2.2096665576e-02    1.0199646094e+05
    2.2118583322e-02    1.0199277344e+05
    2.2140489891e-02    1.0198939844e+05
    2.2162377834e-02    1.0199025781e+05
    2.2184254602e-02    1.0199155469e+05
    2.2206118330e-02    1.0199566406e+05
    2.2227969021e-02    1.0199580469e+05
    2.2249806672e-02    1.0200208594e+05
    2.2271629423e-02    1.0200044531e+05
    2.2293440998e-02    1.0200350000e+05
    2.2315241396e-02    1.0200430469e+05
    2.2337028757e-02    1.0200000781e+05
    2.2358803079e-02    1.0200475000e+05
    2.2380566224e-02    1.0201496094e+05
    2.2402318195e-02    1.0201809375e+05
    2.2424057126e-02    1.0203133594e+05
    2.2445784882e-02    1.0203600000e+05
    2.2467501462e-02    1.0204062500e+05
    2.2489206865e-02    1.0204485156e+05
    2.2510899231e-02    1.0204847656e+05
    2.2532582283e-02    1.0205133594e+05
    2.2554252297e-02    1.0205831250e+05
    2.2575911134e-02    1.0206613281e+05
    2.2597560659e-02    1.0206933594e+05
    2.2619199008e-02    1.0207747656e+05
    2.2640828043e-02    1.0208164844e+05
    2.2662445903e-02    1.0208075000e+05
    2.2684050724e-02    1.0208460156e+05
    2.2705646232e-02    1.0208761719e+05
    2.2727232426e-02    1.0209567969e+05
    2.2748809308e-02    1.0209864844e+05
    2.2770375013e-02    1.0210650000e+05
    2.2791929543e-02    1.0210000781e+05
    2.2813472897e-02    1.0210200000e+05
    2.2835006937e-02    1.0210458594e+05
    2.2856531665e-02    1.0210664844e+05
    2.2878047079e-02    1.0210321094e+05
    2.2899549454e-02    1.0209966406e+05
    2.2921044379e-02    1.0209983594e+05
    2.2942528129e-02    1.0209491406e+05
    2.2964000702e-02    1.0209027344e+05
    2.2985465825e-02    1.0208978906e+05
    2.3006917909e-02    1.0208919531e+05
    2.3028360680e-02    1.0208809375e+05
    2.3049792275e-02    1.0208271094e+05
    2.3071214557e-02    1.0207696094e+05
    2.3092625663e-02    1.0207592969e+05
    2.3114029318e-02    1.0207359375e+05
    2.3135419935e-02    1.0207139844e+05
    2.3156799376e-02    1.0206987500e+05
    2.3178169504e-02    1.0206890625e+05
    2.3199530318e-02    1.0206997656e+05
    2.3220879957e-02    1.0207650781e+05
    2.3242218420e-02    1.0207656250e+05
    2.3263547570e-02    1.0207740625e+05
    2.3284865543e-02    1.0207815625e+05
    2.3306174204e-02    1.0207903125e+05
    2.3327469826e-02    1.0207978125e+05
    2.3348756135e-02    1.0208542969e+05
    2.3370031267e-02    1.0209160156e+05
    2.3391297087e-02    1.0210208594e+05
    2.3412553594e-02    1.0210438281e+05
    2.3433798924e-02    1.0211088281e+05
    2.3455033079e-02    1.0211299219e+05
    2.3476256058e-02    1.0212108594e+05
    2.3497469723e-02    1.0213477344e+05
    2.3518672213e-02    1.0214699219e+05
    2.3539865389e-02    1.0215603125e+05
    2.3561049253e-02    1.0217256250e+05
    2.3582221940e-02    1.0219434375e+05
    2.3603385314e-02    1.0221347656e+05
    2.3624535650e-02    1.0223789844e+05
    2.3645676672e-02    1.0225783594e+05
    2.3666808382e-02    1.0226939844e+05
    2.3687927052e-02    1.0229136719e+05
    2.3709038273e-02    1.0231377344e+05
    2.3730138317e-02    1.0233186719e+05
    2.3751227185e-02    1.0235094531e+05
    2.3772306740e-02    1.0236471094e+05
    2.3793375120e-02    1.0237861719e+05
    2.3814432323e-02    1.0239192969e+05
    2.3835480213e-02    1.0240052344e+05
    2.3856516927e-02    1.0240902344e+05
    2.3877544329e-02    1.0241185156e+05
    2.3898560554e-02    1.0241297656e+05
    2.3919565603e-02    1.0240777344e+05
    2.3940561339e-02    1.0240063281e+05
    2.3961545900e-02    1.0238184375e+05
    2.3982519284e-02    1.0236116406e+05
    2.4003483355e-02    1.0233741406e+05
    2.4024436250e-02    1.0231089844e+05
    2.4045377970e-02    1.0227714844e+05
    2.4066310376e-02    1.0224060156e+05
    2.4087233469e-02    1.0220096875e+05
    2.4108145386e-02    1.0215767969e+05
    2.4129044265e-02    1.0211189844e+05
    2.4149935693e-02    1.0207328906e+05
    2.4170814082e-02    1.0203355469e+05
    2.4191683158e-02    1.0200053906e+05
    2.4212542921e-02    1.0197353125e+05
    2.4233391508e-02    1.0195490625e+05
    2.4254228920e-02    1.0193271094e+05
    2.4275057018e-02    1.0192544531e+05
    2.4295873940e-02    1.0192510156e+05
    2.4316681549e-02    1.0194124219e+05
    2.4337477982e-02    1.0196058594e+05
    2.4358265102e-02    1.0198918750e+05
    2.4379042909e-02    1.0202171094e+05
    2.4399809539e-02    1.0205114844e+05
    2.4420566857e-02    1.0207817969e+05
    2.4441312999e-02    1.0210590625e+05
    2.4462047964e-02    1.0213502344e+05
    2.4482775480e-02    1.0216241406e+05
    2.4503491819e-02    1.0219110156e+05
    2.4524198845e-02    1.0221452344e+05
    2.4544894695e-02    1.0223677344e+05
    2.4565581232e-02    1.0225244531e+05
    2.4586258456e-02    1.0227489844e+05
    2.4606924504e-02    1.0228869531e+05
    2.4627581239e-02    1.0230171094e+05
    2.4648228660e-02    1.0230564844e+05
    2.4668866768e-02    1.0231842969e+05
    2.4689495564e-02    1.0233124219e+05
    2.4710113183e-02    1.0233438281e+05
    2.4730721489e-02    1.0234675781e+05
    2.4751318619e-02    1.0235880469e+05
    2.4771906435e-02    1.0237071094e+05
    2.4792486802e-02    1.0238313281e+05
    2.4813055992e-02    1.0239547656e+05
    2.4833614007e-02    1.0240749219e+05
    2.4854162708e-02    1.0241397656e+05
    2.4874702096e-02    1.0242130469e+05
    2.4895232171e-02    1.0243672656e+05
    2.4915752932e-02    1.0244369531e+05
    2.4936262518e-02    1.0245422656e+05
    2.4956764653e-02    1.0246452344e+05
    2.4977253750e-02    1.0246484375e+05
    2.4997735396e-02    1.0246899219e+05
    2.5018205866e-02    1.0246736719e+05
    2.5038668886e-02    1.0246949219e+05
    2.5059120730e-02    1.0246667969e+05
    2.5079563260e-02    1.0247191406e+05
    2.5099996477e-02    1.0246753906e+05
    2.5120420381e-02    1.0246266406e+05
    2.5140833110e-02    1.0245890625e+05
    2.5161236525e-02    1.0245668750e+05
    2.5181630626e-02    1.0245209375e+05
    2.5202017277e-02    1.0245366406e+05
    2.5222390890e-02    1.0244587500e+05
    2.5242757052e-02    1.0244562500e+05
    2.5263112038e-02    1.0243569531e+05
    2.5283459574e-02    1.0242635156e+05
    2.5303795934e-02    1.0242514844e+05
    2.5324124843e-02    1.0242406250e+05
    2.5344440714e-02    1.0241321094e+05
    2.5364749134e-02    1.0241121875e+05
    2.5385048240e-02    1.0240483594e+05
    2.5405339897e-02    1.0239800781e+05
    2.5425618514e-02    1.0238846094e+05
    2.5445887819e-02    1.0238185156e+05
    2.5466147810e-02    1.0237024219e+05
    2.5486400351e-02    1.0236275781e+05
    2.5506639853e-02    1.0235260156e+05
    2.5526873767e-02    1.0234185156e+05
    2.5547094643e-02    1.0233585156e+05
    2.5567308068e-02    1.0232947656e+05
    2.5587510318e-02    1.0231631250e+05
    2.5607703254e-02    1.0230750781e+05
    2.5627886876e-02    1.0230033594e+05
    2.5648061186e-02    1.0228843750e+05
    2.5668226182e-02    1.0227587500e+05
    2.5688380003e-02    1.0226768750e+05
    2.5708526373e-02    1.0226340625e+05
    2.5728661567e-02    1.0225528906e+05
    2.5748789310e-02    1.0224253906e+05
    2.5768904015e-02    1.0223505469e+05
    2.5789011270e-02    1.0222739844e+05
    2.5809109211e-02    1.0222696094e+05
    2.5829195976e-02    1.0222212500e+05
    2.5849273428e-02    1.0221552344e+05
    2.5869343430e-02    1.0221318750e+05
    2.5889402255e-02    1.0221172656e+05
    2.5909451768e-02    1.0221508594e+05
    2.5929493830e-02    1.0221053906e+05
    2.5949522853e-02    1.0221044531e+05
    2.5969544426e-02    1.0221042969e+05
    2.5989556685e-02    1.0220858594e+05
    2.6009559631e-02    1.0220693750e+05
    2.6029553264e-02    1.0220314844e+05
    2.6049537584e-02    1.0220485156e+05
    2.6069512591e-02    1.0220671094e+05
    2.6089478284e-02    1.0221441406e+05
    2.6109432802e-02    1.0221822656e+05
    2.6129379869e-02    1.0221761719e+05
    2.6149315760e-02    1.0222121094e+05
    2.6169244200e-02    1.0222603906e+05
    2.6189163327e-02    1.0222602344e+05
    2.6209073141e-02    1.0222660156e+05
    2.6228975505e-02    1.0223163281e+05
    2.6248866692e-02    1.0223757031e+05
    2.6268748567e-02    1.0224344531e+05
    2.6288621128e-02    1.0225056250e+05
    2.6308484375e-02    1.0225316406e+05
    2.6328338310e-02    1.0225558594e+05
    2.6348184794e-02    1.0226318750e+05
    2.6368021965e-02    1.0227108594e+05
    2.6387847960e-02    1.0227466406e+05
    2.6407664642e-02    1.0227815625e+05
    2.6427472010e-02    1.0228152344e+05
    2.6447271928e-02    1.0228603125e+05
    2.6467062533e-02    1.0229187500e+05
    2.6486843824e-02    1.0230285156e+05
    2.6506617665e-02    1.0230731250e+05
    2.6526380330e-02    1.0231171875e+05
    2.6546133682e-02    1.0231560156e+05
    2.6565877721e-02    1.0231260156e+05
    2.6585612446e-02    1.0231878125e+05
    2.6605339721e-02    1.0232300000e+05
    2.6625057682e-02    1.0232981250e+05
    2.6644766331e-02    1.0233119531e+05
    2.6664465666e-02    1.0233421875e+05
    2.6684155688e-02    1.0233490625e+05
    2.6703836396e-02    1.0233778906e+05
    2.6723509654e-02    1.0233833594e+05
    2.6743173599e-02    1.0234127344e+05
    2.6762828231e-02    1.0234507031e+05
    2.6782475412e-02    1.0234907031e+05
    2.6802113280e-02    1.0235169531e+05
    2.6821739972e-02    1.0234963281e+05
    2.6841359213e-02    1.0234727344e+05
    2.6860967278e-02    1.0234868750e+05
    2.6880569756e-02    1.0235089844e+05
    2.6900164783e-02    1.0235233594e+05
    2.6919748634e-02    1.0235417969e+05
    2.6939325035e-02    1.0235610156e+05
    2.6958892122e-02    1.0235784375e+05
    2.6978449896e-02    1.0235447656e+05
    2.6997998357e-02    1.0235572656e+05
    2.7017539367e-02    1.0235411719e+05
    2.7037071064e-02    1.0235278125e+05
    2.7056595311e-02    1.0235372656e+05
    2.7076110244e-02    1.0235661719e+05
    2.7095617726e-02    1.0235503906e+05
    2.7115115896e-02    1.0235585156e+05
    2.7134604752e-02    1.0235692969e+05
    2.7154086158e-02    1.0235750000e+05
    2.7173558250e-02    1.0235746875e+05
    2.7193021029e-02    1.0235207031e+05
    2.7212476358e-02    1.0235360156e+05
    2.7231922373e-02    1.0235509375e+05
    2.7251357213e-02    1.0234478906e+05
    2.7270786464e-02    1.0234422656e+05
    2.7290204540e-02    1.0234361719e+05
    2.7309613302e-02    1.0234303906e+05
    2.7329014614e-02    1.0234352344e+05
    2.7348404750e-02    1.0234325000e+05
    2.7367785573e-02    1.0234789844e+05
    2.7387158945e-02    1.0234812500e+05
    2.7406521142e-02    1.0234353125e+05
    2.7425874025e-02    1.0234562500e+05
    2.7445219457e-02    1.0235275000e+05
    2.7464553714e-02    1.0234543750e+05
    2.7483878657e-02    1.0234468750e+05
    2.7503194287e-02    1.0234203906e+05
    2.7522502467e-02    1.0234160156e+05
    2.7541799471e-02    1.0234064844e+05
    2.7561087161e-02    1.0234477344e+05
    2.7580365539e-02    1.0234692969e+05
    2.7599634603e-02    1.0234464844e+05
    2.7618894354e-02    1.0234256250e+05
    2.7638144791e-02    1.0234693750e+05
    2.7657385916e-02    1.0233950781e+05
    2.7676619589e-02    1.0234119531e+05
    2.7695843950e-02    1.0234518750e+05
    2.7715058997e-02    1.0234178125e+05
    2.7734262869e-02    1.0234083594e+05
    2.7753459290e-02    1.0233944531e+05
    2.7772648260e-02    1.0233796094e+05
    2.7791827917e-02    1.0233271094e+05
    2.7810998261e-02    1.0233103125e+05
    2.7830159292e-02    1.0232941406e+05
    2.7849311009e-02    1.0233259375e+05
    2.7868455276e-02    1.0233100000e+05
    2.7887590230e-02    1.0232925781e+05
    2.7906717733e-02    1.0232285156e+05
    2.7925835922e-02    1.0232047656e+05
    2.7944946662e-02    1.0231865625e+05
    2.7964048088e-02    1.0231636719e+05
    2.7983140200e-02    1.0231472656e+05
    2.8002224863e-02    1.0231242969e+05
    2.8021300212e-02    1.0231096094e+05
    2.8040368110e-02    1.0230936719e+05
    2.8059426695e-02    1.0230712500e+05
    2.8078475967e-02    1.0230603906e+05
    2.8097519651e-02    1.0230471875e+05
    2.8116554022e-02    1.0230425000e+05
    2.8135580942e-02    1.0230355469e+05
    2.8154598549e-02    1.0230397656e+05
    2.8173606843e-02    1.0231396875e+05
    2.8192607686e-02    1.0231521094e+05
    2.8211599216e-02    1.0231716406e+05
    2.8230583295e-02    1.0231950000e+05
    2.8249559924e-02    1.0232759375e+05
    2.8268527240e-02    1.0233111719e+05
    2.8287487105e-02    1.0233433594e+05
    2.8306435794e-02    1.0234300000e+05
    2.8325378895e-02    1.0234735156e+05
    2.8344312683e-02    1.0236128906e+05
    2.8363237157e-02    1.0236691406e+05
    2.8382156044e-02    1.0237338281e+05
    2.8401065618e-02    1.0238405469e+05
    2.8419965878e-02    1.0239008594e+05
    2.8438858688e-02    1.0239977344e+05
    2.8457742184e-02    1.0240605469e+05
    2.8476616368e-02    1.0241244531e+05
    2.8495483100e-02    1.0241841406e+05
    2.8514338657e-02    1.0242460156e+05
    2.8533160686e-02    1.0243028906e+05
    2.8551930562e-02    1.0243553125e+05
    2.8570635244e-02    1.0244121094e+05
    2.8589271009e-02    1.0245083594e+05
    2.8607837856e-02    1.0245396875e+05
    2.8626350686e-02    1.0245743750e+05
    2.8644818813e-02    1.0246193750e+05
    2.8663259000e-02    1.0246164844e+05
    2.8681686148e-02    1.0246572656e+05
    2.8700113297e-02    1.0246403125e+05
    2.8718546033e-02    1.0246116406e+05
    2.8736986220e-02    1.0246255469e+05
    2.8755431995e-02    1.0245912500e+05
    2.8773877770e-02    1.0245975781e+05
    2.8792314231e-02    1.0245816406e+05
    2.8810730204e-02    1.0245621094e+05
    2.8829116374e-02    1.0245619531e+05
    2.8847465292e-02    1.0245127344e+05
    2.8865773231e-02    1.0244577344e+05
    2.8884036466e-02    1.0244516406e+05
    2.8902258724e-02    1.0244390625e+05
    2.8920443729e-02    1.0244725781e+05
    2.8938598931e-02    1.0244153906e+05
    2.8956729919e-02    1.0243600000e+05
    2.8974846005e-02    1.0243460156e+05
    2.8992949054e-02    1.0243287500e+05
    2.9011042789e-02    1.0242664844e+05
    2.9029129073e-02    1.0241960156e+05
    2.9047204182e-02    1.0241689844e+05
    2.9065268114e-02    1.0241840625e+05
    2.9083315283e-02    1.0242022656e+05
    2.9101338238e-02    1.0241784375e+05
    2.9119335115e-02    1.0241078906e+05
    2.9137304053e-02    1.0240415625e+05
    2.9155241325e-02    1.0240214844e+05
    2.9173148796e-02    1.0240064844e+05
    2.9191024601e-02    1.0239866406e+05
    2.9208874330e-02    1.0239619531e+05
    2.9226697981e-02    1.0239606250e+05
    2.9244501144e-02    1.0239674219e+05
    2.9262285680e-02    1.0239503125e+05
    2.9280053452e-02    1.0239839844e+05
    2.9297806323e-02    1.0238952344e+05
    2.9315544292e-02    1.0239077344e+05
    2.9333265498e-02    1.0238918750e+05
    2.9350971803e-02    1.0238764844e+05
    2.9368655756e-02    1.0238883594e+05
    2.9386319220e-02    1.0239000781e+05
    2.9403960332e-02    1.0238966406e+05
    2.9421577230e-02    1.0238935156e+05
    2.9439168051e-02    1.0238939844e+05
    2.9456734657e-02    1.0239641406e+05
    2.9474277049e-02    1.0239877344e+05
    2.9491795227e-02    1.0239896094e+05
    2.9509292915e-02    1.0239450781e+05
    2.9526771978e-02    1.0239207031e+05
    2.9544232413e-02    1.0239944531e+05
    2.9561674222e-02    1.0240005469e+05
    2.9579099268e-02    1.0240096875e+05
    2.9596509412e-02    1.0240443750e+05
    2.9613900930e-02    1.0240760156e+05
    2.9631273821e-02    1.0240927344e+05
    2.9648626223e-02    1.0241089844e+05
    2.9665958136e-02    1.0241222656e+05
    2.9683271423e-02    1.0241950000e+05
    2.9700560495e-02    1.0241863281e+05
    2.9717829078e-02    1.0241502344e+05
    2.9735075310e-02    1.0241407031e+05
    2.9752301052e-02    1.0241544531e+05
    2.9769508168e-02    1.0241643750e+05
    2.9786696658e-02    1.0241652344e+05
    2.9803866521e-02    1.0241167969e+05
    2.9821017757e-02    1.0240696094e+05
    2.9838152230e-02    1.0240156250e+05
    2.9855269939e-02    1.0239647656e+05
    2.9872370884e-02    1.0239528906e+05
    2.9889453202e-02    1.0239438281e+05
    2.9906518757e-02    1.0239340625e+05
    2.9923565686e-02    1.0239209375e+05
    2.9940593988e-02    1.0238035156e+05
    2.9957601801e-02    1.0237292969e+05
    2.9974590987e-02    1.0236456250e+05
    2.9991561547e-02    1.0235050000e+05
    3.0008511618e-02    1.0233553906e+05
    3.0025444925e-02    1.0231937500e+05
    3.0042361468e-02    1.0231202344e+05
    3.0059259385e-02    1.0230513281e+05
    3.0076142401e-02    1.0229834375e+05
    3.0093006790e-02    1.0229191406e+05
    3.0109854415e-02    1.0228560156e+05
    3.0126683414e-02    1.0228250781e+05
    3.0143497512e-02    1.0227447656e+05
    3.0160292983e-02    1.0226906250e+05
    3.0177071691e-02    1.0226383594e+05
    3.0193833634e-02    1.0226274219e+05
    3.0210576952e-02    1.0226228906e+05
    3.0227303505e-02    1.0225763281e+05
    3.0244011432e-02    1.0226260156e+05
    3.0260702595e-02    1.0226928906e+05
    3.0277376994e-02    1.0227690625e+05
    3.0294034630e-02    1.0227616406e+05
    3.0310675502e-02    1.0228521094e+05
    3.0327299610e-02    1.0229543750e+05
    3.0343905091e-02    1.0230643750e+05
    3.0360495672e-02    1.0230921094e+05
    3.0377071351e-02    1.0232180469e+05
    3.0393628404e-02    1.0233077344e+05
    3.0410168692e-02    1.0234008594e+05
    3.0426690355e-02    1.0234496875e+05
    3.0443195254e-02    1.0235935156e+05
    3.0459685251e-02    1.0236528906e+05
    3.0476156622e-02    1.0237150000e+05
    3.0492611229e-02    1.0237763281e+05
    3.0509050936e-02    1.0238866406e+05
    3.0525473878e-02    1.0239528906e+05
    3.0541881919e-02    1.0239728906e+05
    3.0558273196e-02    1.0240300000e+05
    3.0574647710e-02    1.0240943750e+05
    3.0591005459e-02    1.0241437500e+05
    3.0607348308e-02    1.0241521875e+05
    3.0623674393e-02    1.0241525000e+05
    3.0639985576e-02    1.0242021094e+05
    3.0656279996e-02    1.0242189844e+05
    3.0672557652e-02    1.0241922656e+05
    3.0688818544e-02    1.0242346875e+05
    3.0705062672e-02    1.0242746094e+05
    3.0721291900e-02    1.0243203906e+05
    3.0737506226e-02    1.0243596094e+05
    3.0753703788e-02    1.0244058594e+05
    3.0769886449e-02    1.0244441406e+05
    3.0786054209e-02    1.0243875781e+05
    3.0802207068e-02    1.0244240625e+05
    3.0818343163e-02    1.0244537500e+05
    3.0834466219e-02    1.0244883594e+05
    3.0850572512e-02    1.0245167969e+05
    3.0866663903e-02    1.0245283594e+05
    3.0882738531e-02    1.0245128906e+05
    3.0898798257e-02    1.0245191406e+05
    3.0914843082e-02    1.0245914844e+05
    3.0930871144e-02    1.0246221875e+05
    3.0946886167e-02    1.0246777344e+05
    3.0962884426e-02    1.0246434375e+05
    3.0978867784e-02    1.0246733594e+05
    3.0994836241e-02    1.0247016406e+05
    3.1010789797e-02    1.0247225781e+05
    3.1026728451e-02    1.0247459375e+05
    3.1042650342e-02    1.0246935156e+05
    3.1058559194e-02    1.0246788281e+05
    3.1074455008e-02    1.0246839844e+05
    3.1090334058e-02    1.0246661719e+05
    3.1106200069e-02    1.0246421094e+05
    3.1122051179e-02    1.0246469531e+05
    3.1137887388e-02    1.0246727344e+05
    3.1153710559e-02    1.0246472656e+05
    3.1169516966e-02    1.0246461719e+05
    3.1185310334e-02    1.0246328125e+05
    3.1201090664e-02    1.0245721875e+05
    3.1216854230e-02    1.0245041406e+05
    3.1232602894e-02    1.0244772656e+05
    3.1248336658e-02    1.0244021875e+05
    3.1264055520e-02    1.0243211719e+05
    3.1279761344e-02    1.0242847656e+05
    3.1295452267e-02    1.0242377344e+05
    3.1311132014e-02    1.0242193750e+05
    3.1326796860e-02    1.0241902344e+05
    3.1342446804e-02    1.0241375781e+05
    3.1358085573e-02    1.0240375781e+05
    3.1373709440e-02    1.0239808594e+05
    3.1389318407e-02    1.0239203125e+05
    3.1404916197e-02    1.0238371875e+05
    3.1420499086e-02    1.0237249219e+05
    3.1436067075e-02    1.0237264844e+05
    3.1451620162e-02    1.0236580469e+05
    3.1467158347e-02    1.0235464844e+05
    3.1482685357e-02    1.0235266406e+05
    3.1498193741e-02    1.0234639844e+05
    3.1513694674e-02    1.0234506250e+05
    3.1529176980e-02    1.0234005469e+05
    3.1544648111e-02    1.0233496875e+05
    3.1560108066e-02    1.0233542969e+05
    3.1575553119e-02    1.0233664844e+05
    3.1590986997e-02    1.0233331250e+05
    3.1606405973e-02    1.0233042969e+05
    3.1621813774e-02    1.0232811719e+05
    3.1637206674e-02    1.0232133594e+05
    3.1652588397e-02    1.0232221094e+05
    3.1667951494e-02    1.0232352344e+05
    3.1683307141e-02    1.0232822656e+05
    3.1698647887e-02    1.0232971094e+05
    3.1713977456e-02    1.0233603906e+05
    3.1729292125e-02    1.0234321094e+05
    3.1744595617e-02    1.0234664844e+05
    3.1759884208e-02    1.0235999219e+05
    3.1775161624e-02    1.0236483594e+05
    3.1790427864e-02    1.0237027344e+05
    3.1805675477e-02    1.0238539844e+05
    3.1820915639e-02    1.0239228125e+05
    3.1836140901e-02    1.0240367969e+05
    3.1851354986e-02    1.0241589844e+05
    3.1866557896e-02    1.0242346094e+05
    3.1881745905e-02    1.0243658594e+05
    3.1896922737e-02    1.0244449219e+05
    3.1912088394e-02    1.0245764844e+05
    3.1927239150e-02    1.0246799219e+05
    3.1942378730e-02    1.0247849219e+05
    3.1957507133e-02    1.0248119531e+05
    3.1972620636e-02    1.0248433594e+05
    3.1987726688e-02    1.0249158594e+05
    3.2002814114e-02    1.0249846875e+05
    3.2017890364e-02    1.0250491406e+05
    3.2032959163e-02    1.0251119531e+05
    3.2048013061e-02    1.0251660156e+05
    3.2063052058e-02    1.0251699219e+05
    3.2078083605e-02    1.0252163281e+05
    3.2093103975e-02    1.0252557031e+05
    3.2108109444e-02    1.0252458594e+05
    3.2123107463e-02    1.0252303125e+05
    3.2138090581e-02    1.0252592969e+05
    3.2153062522e-02    1.0252832031e+05
    3.2168023288e-02    1.0253047656e+05
    3.2182972878e-02    1.0253268750e+05
    3.2197911292e-02    1.0253433594e+05
    3.2212834805e-02    1.0253602344e+05
    3.2227750868e-02    1.0253300781e+05
    3.2242652029e-02    1.0253462500e+05
    3.2257542014e-02    1.0252785156e+05
    3.2272424549e-02    1.0252555469e+05
    3.2287292182e-02    1.0252032031e+05
    3.2302148640e-02    1.0251946875e+05
    3.2316997647e-02    1.0251837500e+05
    3.2331831753e-02    1.0251711719e+05
    3.2346658409e-02    1.0251600781e+05
    3.2361470163e-02    1.0251532031e+05
    3.2376270741e-02    1.0251002344e+05
    3.2391063869e-02    1.0250941406e+05
    3.2405842096e-02    1.0250875000e+05
    3.2420612872e-02    1.0250833594e+05
    3.2435368747e-02    1.0250796094e+05
    3.2450113446e-02    1.0250758594e+05
    3.2464850694e-02    1.0250746094e+05
    3.2479573041e-02    1.0250735156e+05
    3.2494287938e-02    1.0250708594e+05
    3.2508991659e-02    1.0250678906e+05
    3.2523684204e-02    1.0250688281e+05
    3.2538365573e-02    1.0250671094e+05
    3.2553035766e-02    1.0250696094e+05
    3.2567698509e-02    1.0250693750e+05
    3.2582346350e-02    1.0250731250e+05
    3.2596986741e-02    1.0250778906e+05
    3.2611619681e-02    1.0250803125e+05
    3.2626237720e-02    1.0250808594e+05
    3.2640848309e-02    1.0250846094e+05
    3.2655447721e-02    1.0250889844e+05
    3.2670035958e-02    1.0250936719e+05
    3.2684613019e-02    1.0250978125e+05
    3.2699178904e-02    1.0250952344e+05
    3.2713737339e-02    1.0251003125e+05
    3.2728284597e-02    1.0251047656e+05
    3.2742820680e-02    1.0250796094e+05
    3.2757349312e-02    1.0250543750e+05
    3.2771866769e-02    1.0250788281e+05
    3.2786373049e-02    1.0251002344e+05
    3.2800871879e-02    1.0250925781e+05
    3.2815355808e-02    1.0250368750e+05
    3.2829832286e-02    1.0250240625e+05
    3.2844301313e-02    1.0250165625e+05
    3.2858755440e-02    1.0249819531e+05
    3.2873202115e-02    1.0249461719e+05
    3.2887637615e-02    1.0249353906e+05
    3.2902065665e-02    1.0249291406e+05
    3.2916482538e-02    1.0249721094e+05
    3.2930891961e-02    1.0249675781e+05
    3.2945290208e-02    1.0249653906e+05
    3.2959677279e-02    1.0249371875e+05
    3.2974056900e-02    1.0249106250e+05
    3.2988425344e-02    1.0249008594e+05
    3.3002786338e-02    1.0249389844e+05
    3.3017136157e-02    1.0249353906e+05
    3.3031478524e-02    1.0249096094e+05
    3.3045809716e-02    1.0248747656e+05
    3.3060129732e-02    1.0248678906e+05
    3.3074442297e-02    1.0248772656e+05
    3.3088747412e-02    1.0248703906e+05
    3.3103041351e-02    1.0248860156e+05
    3.3117324114e-02    1.0248344531e+05
    3.3131599426e-02    1.0248341406e+05
    3.3145863563e-02    1.0248585156e+05
    3.3160120249e-02    1.0248605469e+05
    3.3174365759e-02    1.0249083594e+05
    3.3188603818e-02    1.0248852344e+05
    3.3202830702e-02    1.0249150781e+05
    3.3217050135e-02    1.0249405469e+05
    3.3231258392e-02    1.0249393750e+05
    3.3245459199e-02    1.0249383594e+05
    3.3259648830e-02    1.0249375000e+05
    3.3273831010e-02    1.0248916406e+05
    3.3288005739e-02    1.0248900781e+05
    3.3302169293e-02    1.0249125000e+05
    3.3316325396e-02    1.0249328906e+05
    3.3330474049e-02    1.0249339844e+05
    3.3344611526e-02    1.0249321094e+05
    3.3358741552e-02    1.0249346094e+05
    3.3372864127e-02    1.0249396094e+05
    3.3386975527e-02    1.0249455469e+05
    3.3401079476e-02    1.0249465625e+05
    3.3415172249e-02    1.0249483594e+05
    3.3429257572e-02    1.0249731250e+05
    3.3443335444e-02    1.0249816406e+05
    3.3457405865e-02    1.0249846094e+05
    3.3471468836e-02    1.0249903906e+05
    3.3485524356e-02    1.0249736719e+05
    3.3499568701e-02    1.0249787500e+05
    3.3513605595e-02    1.0249857031e+05
    3.3527631313e-02    1.0249859375e+05
    3.3541653305e-02    1.0249857031e+05
    3.3555664122e-02    1.0249847656e+05
    3.3569667488e-02    1.0249833594e+05
    3.3583663404e-02    1.0249790625e+05
    3.3597648144e-02    1.0249755469e+05
    3.3611625433e-02    1.0249777344e+05
    3.3625595272e-02    1.0249797656e+05
    3.3639557660e-02    1.0249819531e+05
    3.3653512597e-02    1.0249865625e+05
    3.3667460084e-02    1.0249880469e+05
    3.3681396395e-02    1.0249891406e+05
    3.3695328981e-02    1.0249897656e+05
    3.3709254116e-02    1.0249907031e+05
    3.3723168075e-02    1.0249919531e+05
    3.3737078309e-02    1.0249971094e+05
    3.3750977367e-02    1.0250030469e+05
    3.3764872700e-02    1.0250088281e+05
    3.3778760582e-02    1.0250125781e+05
    3.3792637289e-02    1.0250158594e+05
    3.3806510270e-02    1.0250134375e+05
    3.3820372075e-02    1.0250197656e+05
    3.3834230155e-02    1.0250200000e+05
    3.3848077059e-02    1.0250221094e+05
    3.3861916512e-02    1.0250240625e+05
    3.3875752240e-02    1.0250250781e+05
    3.3889576793e-02    1.0250253906e+05
    3.3903393894e-02    1.0250282031e+05
    3.3917203546e-02    1.0250271094e+05
    3.3931009471e-02    1.0250253125e+05
    3.3944804221e-02    1.0250228906e+05
    3.3958595246e-02    1.0249939844e+05
    3.3972378820e-02    1.0249878906e+05
    3.3986151218e-02    1.0249610156e+05
    3.3999919891e-02    1.0250046875e+05
    3.4013681114e-02    1.0250018750e+05
    3.4027434886e-02    1.0249962500e+05
    3.4041177481e-02    1.0249874219e+05
    3.4054916352e-02    1.0249847656e+05
    3.4068647772e-02    1.0249815625e+05
    3.4082375467e-02    1.0249785156e+05
    3.4096091986e-02    1.0249783594e+05
    3.4109804779e-02    1.0249725781e+05
    3.4123510122e-02    1.0249755469e+05
    3.4137208015e-02    1.0249728906e+05
    3.4150898457e-02    1.0249678906e+05
    3.4164581448e-02    1.0249678906e+05
    3.4178260714e-02    1.0249660156e+05
    3.4191932529e-02    1.0249635156e+05
    3.4205596894e-02    1.0249583594e+05
    3.4219253808e-02    1.0249499219e+05
    3.4232903272e-02    1.0249464844e+05
    3.4246545285e-02    1.0249425000e+05
    3.4260183573e-02    1.0249355469e+05
    3.4273810685e-02    1.0249307031e+05
    3.4287434071e-02    1.0249247656e+05
    3.4301050007e-02    1.0249161719e+05
    3.4314658493e-02    1.0249093750e+05
    3.4328263253e-02    1.0249027344e+05
    3.4341860563e-02    1.0248958594e+05
    3.4355450422e-02    1.0248885156e+05
    3.4369036555e-02    1.0248843750e+05
    3.4382611513e-02    1.0248743750e+05
    3.4396182746e-02    1.0248677344e+05
    3.4409742802e-02    1.0248609375e+05
    3.4423299134e-02    1.0248532031e+05
    3.4436848015e-02    1.0248489844e+05
    3.4450393170e-02    1.0248435156e+05
    3.4463927150e-02    1.0248440625e+05
    3.4477461129e-02    1.0248424219e+05
    3.4490987659e-02    1.0248414844e+05
    3.4504506737e-02    1.0248371094e+05
    3.4518022090e-02    1.0248331250e+05
    3.4531529993e-02    1.0248314844e+05
    3.4545030445e-02    1.0248319531e+05
    3.4558523446e-02    1.0248258594e+05
    3.4572008997e-02    1.0248208594e+05
    3.4585487098e-02    1.0248146094e+05
    3.4598957747e-02    1.0248062500e+05
    3.4612424672e-02    1.0247046094e+05
    3.4625884145e-02    1.0246942969e+05
    3.4639336169e-02    1.0247322656e+05
    3.4652780741e-02    1.0247659375e+05
    3.4666225314e-02    1.0247591406e+05
    3.4679658711e-02    1.0247559375e+05
    3.4693088382e-02    1.0247496094e+05
    3.4706510603e-02    1.0247428125e+05
    3.4719929099e-02    1.0247325781e+05
    3.4733340144e-02    1.0247308594e+05
    3.4746743739e-02    1.0247196875e+05
    3.4760143608e-02    1.0246707031e+05
    3.4773536026e-02    1.0247103125e+05
    3.4786924720e-02    1.0247066406e+05
    3.4800305963e-02    1.0246952344e+05
    3.4813679755e-02    1.0246897656e+05
    3.4827046096e-02    1.0246852344e+05
    3.4840408713e-02    1.0246800000e+05
    3.4853763878e-02    1.0246721094e+05
    3.4867111593e-02    1.0246640625e+05
    3.4880455583e-02    1.0246586719e+05
    3.4893795848e-02    1.0246531250e+05
    3.4907124937e-02    1.0246442969e+05
    3.4920454025e-02    1.0246381250e+05
    3.4933775663e-02    1.0246317969e+05
    3.4947093576e-02    1.0246283594e+05
    3.4960404038e-02    1.0246222656e+05
    3.4973710775e-02    1.0246165625e+05
    3.4987010062e-02    1.0246141406e+05
endcurve
