Curveplot
LS-DYNA keyword deck by LS-PrePost                          
Time
Pressure
Defined Connection
Pressure @ 25 #pts=1745
* Minval=     9.9301445312e+04 at time=         0.0131086055
* Maxval=     1.7018134375e+05 at time=         0.0061924448
    0.0000000000e+00    9.9998125000e+04
    3.3812357287e-05    9.9998125000e+04
    6.1326652940e-05    9.9998289062e+04
    8.9102875791e-05    9.9998382812e+04
    1.1682785407e-04    9.9998523438e+04
    1.4461828687e-04    9.9999437500e+04
    1.7236733402e-04    9.9999414062e+04
    2.0016246708e-04    1.0000921875e+05
    2.2795486439e-04    1.0000005469e+05
    2.5574557367e-04    1.0000065625e+05
    2.8353667585e-04    1.0000035156e+05
    3.1133697485e-04    9.9990835938e+04
    3.3912662184e-04    9.9999781250e+04
    3.6691734567e-04    9.9999976562e+04
    3.9470891352e-04    1.0000038281e+05
    4.2249175021e-04    1.0000521094e+05
    4.5027161832e-04    1.0000544531e+05
    4.7804549104e-04    1.0000171094e+05
    5.0581363030e-04    9.9999257812e+04
    5.3357944125e-04    1.0000109375e+05
    5.6134146871e-04    9.9995835938e+04
    5.8909942163e-04    9.9997789062e+04
    6.1685312539e-04    9.9995148438e+04
    6.4460188150e-04    1.0000072656e+05
    6.7234638846e-04    1.0000272656e+05
    7.0008635521e-04    1.0001062500e+05
    7.2782178177e-04    1.0000172656e+05
    7.5555208605e-04    9.9996101562e+04
    7.8327720985e-04    9.9993960938e+04
    8.1099680392e-04    1.0000053906e+05
    8.3871174138e-04    1.0000071094e+05
    8.6642213864e-04    1.0000047656e+05
    8.9412782108e-04    9.9999726562e+04
    9.2182843946e-04    1.0000000781e+05
    9.4952445943e-04    1.0000064844e+05
    9.7721535712e-04    1.0000147656e+05
    1.0049008997e-03    1.0000091406e+05
    1.0325826006e-03    9.9995632812e+04
    1.0602590628e-03    1.0000046094e+05
    1.0879321489e-03    1.0000396094e+05
    1.1155996472e-03    1.0001077344e+05
    1.1432634201e-03    1.0000108594e+05
    1.1709230021e-03    9.9991007812e+04
    1.1985785095e-03    9.9990726562e+04
    1.2262313394e-03    9.9999710938e+04
    1.2538790470e-03    1.0000096094e+05
    1.2815232622e-03    1.0000425781e+05
    1.3091630535e-03    1.0000278906e+05
    1.3368004002e-03    1.0000414844e+05
    1.3644339051e-03    1.0000910156e+05
    1.3920635683e-03    1.0002883594e+05
    1.4196902048e-03    1.0005308594e+05
    1.4473132323e-03    1.0010216406e+05
    1.4749332331e-03    1.0019164844e+05
    1.5025498578e-03    1.0032609375e+05
    1.5301633393e-03    1.0051952344e+05
    1.5577742597e-03    1.0077372656e+05
    1.5853822697e-03    1.0109922656e+05
    1.6129877185e-03    1.0146992969e+05
    1.6405890929e-03    1.0185946875e+05
    1.6681876732e-03    1.0224983594e+05
    1.6957829939e-03    1.0259930469e+05
    1.7233766848e-03    1.0287269531e+05
    1.7509678146e-03    1.0305075781e+05
    1.7785291420e-03    1.0313660156e+05
    1.8060547300e-03    1.0313058594e+05
    1.8335470231e-03    1.0305389844e+05
    1.8610082334e-03    1.0292259375e+05
    1.8884401070e-03    1.0275516406e+05
    1.9158447394e-03    1.0258113281e+05
    1.9432241097e-03    1.0241802344e+05
    1.9705800805e-03    1.0229339844e+05
    1.9979148638e-03    1.0221897656e+05
    2.0252298564e-03    1.0219228906e+05
    2.0525271539e-03    1.0221264844e+05
    2.0798076876e-03    1.0226606250e+05
    2.1070730872e-03    1.0234267969e+05
    2.1343247499e-03    1.0241978125e+05
    2.1615643054e-03    1.0248591406e+05
    2.1887931507e-03    1.0252552344e+05
    2.2160108201e-03    1.0254388281e+05
    2.2432196420e-03    1.0254071875e+05
    2.2704207804e-03    1.0251664844e+05
    2.2976147011e-03    1.0248285156e+05
    2.3248014040e-03    1.0244287500e+05
    2.3519827519e-03    1.0241021875e+05
    2.3791582789e-03    1.0239052344e+05
    2.4063293822e-03    1.0238913281e+05
    2.4334960617e-03    1.0238753125e+05
    2.4606597144e-03    1.0239716406e+05
    2.4878205732e-03    1.0240858594e+05
    2.5149781723e-03    1.0242556250e+05
    2.5421329774e-03    1.0244234375e+05
    2.5692859199e-03    1.0244850781e+05
    2.5964374654e-03    1.0245150781e+05
    2.6235871483e-03    1.0244714844e+05
    2.6507352013e-03    1.0243383594e+05
    2.6778825559e-03    1.0242377344e+05
    2.7050296776e-03    1.0241444531e+05
    2.7321761008e-03    1.0241903906e+05
    2.7593218256e-03    1.0241916406e+05
    2.7864677832e-03    1.0242696094e+05
    2.8136142064e-03    1.0242291406e+05
    2.8407603968e-03    1.0242975000e+05
    2.8679079842e-03    1.0243978125e+05
    2.8950548731e-03    1.0246257031e+05
    2.9222022276e-03    1.0249224219e+05
    2.9493502807e-03    1.0252688281e+05
    2.9764990322e-03    1.0257366406e+05
    3.0036487151e-03    1.0263443750e+05
    3.0307997949e-03    1.0271636719e+05
    3.0579508748e-03    1.0281116406e+05
    3.0851035845e-03    1.0291891406e+05
    3.1122572254e-03    1.0302410156e+05
    3.1394117977e-03    1.0312196094e+05
    3.1665677670e-03    1.0320377344e+05
    3.1937246677e-03    1.0326563281e+05
    3.2208829653e-03    1.0330196875e+05
    3.2480424270e-03    1.0330261719e+05
    3.2752046827e-03    1.0328700000e+05
    3.2952371985e-03    1.0325466406e+05
    3.3145032357e-03    1.0322561719e+05
    3.3336398192e-03    1.0319077344e+05
    3.3528339118e-03    1.0314903125e+05
    3.3720366191e-03    1.0311053906e+05
    3.3912549261e-03    1.0306678125e+05
    3.4104890656e-03    1.0301707031e+05
    3.4297339153e-03    1.0297153906e+05
    3.4486323129e-03    1.0292167969e+05
    3.4671388566e-03    1.0287643750e+05
    3.4854323603e-03    1.0282160156e+05
    3.5036695190e-03    1.0276747656e+05
    3.5219141282e-03    1.0270303906e+05
    3.5401545465e-03    1.0263475000e+05
    3.5583588760e-03    1.0256766406e+05
    3.5765271168e-03    1.0249797656e+05
    3.5946895368e-03    1.0243927344e+05
    3.6139658187e-03    1.0237965625e+05
    3.6330535077e-03    1.0232760156e+05
    3.6521453876e-03    1.0228311719e+05
    3.6699753255e-03    1.0225085156e+05
    3.6875614896e-03    1.0222315625e+05
    3.7050142419e-03    1.0220515625e+05
    3.7224807311e-03    1.0218988281e+05
    3.7400643341e-03    1.0217749219e+05
    3.7577797193e-03    1.0216753906e+05
    3.7755726371e-03    1.0215962500e+05
    3.7933769636e-03    1.0214721875e+05
    3.8111612666e-03    1.0214038281e+05
    3.8289318327e-03    1.0213733594e+05
    3.8467168342e-03    1.0212633594e+05
    3.8645383902e-03    1.0211915625e+05
    3.8824023213e-03    1.0211228906e+05
    3.9002960548e-03    1.0209944531e+05
    3.9182156324e-03    1.0208697656e+05
    3.9361710660e-03    1.0207460156e+05
    3.9541716687e-03    1.0205056250e+05
    3.9733103476e-03    1.0203068750e+05
    3.9924201556e-03    1.0201355469e+05
    4.0104058571e-03    1.0200519531e+05
    4.0284004062e-03    1.0198978125e+05
    4.0464363992e-03    1.0198393750e+05
    4.0656095371e-03    1.0197878906e+05
    4.0847789496e-03    1.0197255469e+05
    4.1039343923e-03    1.0196184375e+05
    4.1219722480e-03    1.0194914844e+05
    4.1400394402e-03    1.0194210156e+05
    4.1591953486e-03    1.0193472656e+05
    4.1784178466e-03    1.0193241406e+05
    4.1976389475e-03    1.0192460156e+05
    4.2168586515e-03    1.0191821094e+05
    4.2360713705e-03    1.0191008594e+05
    4.2552771047e-03    1.0189953125e+05
    4.2744791135e-03    1.0188841406e+05
    4.2936825193e-03    1.0187716406e+05
    4.3128933758e-03    1.0186556250e+05
    4.3321144767e-03    1.0185296875e+05
    4.3513495475e-03    1.0183859375e+05
    4.3705995195e-03    1.0182064844e+05
    4.3898657896e-03    1.0180065625e+05
    4.4091497548e-03    1.0178046875e+05
    4.4284537435e-03    1.0175267969e+05
    4.4477786869e-03    1.0172039844e+05
    4.4671236537e-03    1.0167877344e+05
    4.4864914380e-03    1.0162096094e+05
    4.5058806427e-03    1.0156375000e+05
    4.5252908021e-03    1.0148511719e+05
    4.5447219163e-03    1.0140621875e+05
    4.5641721226e-03    1.0131528906e+05
    4.5836409554e-03    1.0121705469e+05
    4.6031279489e-03    1.0110285156e+05
    4.6226321720e-03    1.0098683594e+05
    4.6421540901e-03    1.0086172656e+05
    4.6616927721e-03    1.0073771094e+05
    4.6812482178e-03    1.0061283594e+05
    4.7008208930e-03    1.0049446875e+05
    4.7204112634e-03    1.0039287500e+05
    4.7400193289e-03    1.0030732031e+05
    4.7596455552e-03    1.0023385156e+05
    4.7792894766e-03    1.0019000781e+05
    4.7989510931e-03    1.0015821875e+05
    4.8186304048e-03    1.0014867969e+05
    4.8383255489e-03    1.0015636719e+05
    4.8580355942e-03    1.0018534375e+05
    4.8777610064e-03    1.0022939844e+05
    4.8975008540e-03    1.0028572656e+05
    4.9172551371e-03    1.0035039844e+05
    4.9370229244e-03    1.0041822656e+05
    4.9568060786e-03    1.0048083594e+05
    4.9766036682e-03    1.0053585156e+05
    4.9964170903e-03    1.0059082031e+05
    5.0162458792e-03    1.0063317969e+05
    5.0360900350e-03    1.0067308594e+05
    5.0559476949e-03    1.0070400000e+05
    5.0758207217e-03    1.0072711719e+05
    5.0957072526e-03    1.0074353906e+05
    5.1156077534e-03    1.0076127344e+05
    5.1355226897e-03    1.0077832031e+05
    5.1554525271e-03    1.0079577344e+05
    5.1753963344e-03    1.0082036719e+05
    5.1953555085e-03    1.0084935156e+05
    5.2153295837e-03    1.0088539844e+05
    5.2353194915e-03    1.0092966406e+05
    5.2553247660e-03    1.0098796094e+05
    5.2753463387e-03    1.0105460156e+05
    5.2953832783e-03    1.0112663281e+05
    5.3154369816e-03    1.0121139844e+05
    5.3355065174e-03    1.0129503125e+05
    5.3555918857e-03    1.0137878125e+05
    5.3756926209e-03    1.0146796875e+05
    5.3958082572e-03    1.0154540625e+05
    5.4159392603e-03    1.0161768750e+05
    5.4360851645e-03    1.0167743750e+05
    5.4562464356e-03    1.0171703906e+05
    5.4764230736e-03    1.0174214844e+05
    5.4966160096e-03    1.0175213281e+05
    5.5168238468e-03    1.0174346094e+05
    5.5370470509e-03    1.0171278906e+05
    5.5572865531e-03    1.0166858594e+05
    5.5775423534e-03    1.0159605469e+05
    5.5978130549e-03    1.0150943750e+05
    5.6181000546e-03    1.0140433594e+05
    5.6384028867e-03    1.0128933594e+05
    5.6587206200e-03    1.0115977344e+05
    5.6790532544e-03    1.0102339844e+05
    5.6994007900e-03    1.0088111719e+05
    5.7197632268e-03    1.0074053906e+05
    5.7401410304e-03    1.0059992969e+05
    5.7605337352e-03    1.0046885156e+05
    5.7809422724e-03    1.0034667969e+05
    5.8013652451e-03    1.0023582031e+05
    5.8218040504e-03    1.0013957031e+05
    5.8422577567e-03    1.0006177344e+05
    5.8627268299e-03    1.0000282031e+05
    5.8832112700e-03    9.9971562500e+04
    5.9037101455e-03    9.9973250000e+04
    5.9242248535e-03    1.0002946094e+05
    5.9447535314e-03    1.0020672656e+05
    5.9641525149e-03    1.0061953906e+05
    5.9830932878e-03    1.0150125781e+05
    6.0020405799e-03    1.0325821875e+05
    6.0210367665e-03    1.0653802344e+05
    6.0400799848e-03    1.1206110156e+05
    6.0591096990e-03    1.2025546094e+05
    6.0781282373e-03    1.3080508594e+05
    6.0972142965e-03    1.4244493750e+05
    6.1162756756e-03    1.5342990625e+05
    6.1353649944e-03    1.6202070312e+05
    6.1544459313e-03    1.6747448438e+05
    6.1734300107e-03    1.6993107812e+05
    6.1924448237e-03    1.7018134375e+05
    6.2115197070e-03    1.6918323438e+05
    6.2306127511e-03    1.6769120312e+05
    6.2497169711e-03    1.6624621875e+05
    6.2688281760e-03    1.6497350000e+05
    6.2879407778e-03    1.6379790625e+05
    6.3070552424e-03    1.6256945312e+05
    6.3261794858e-03    1.6118898438e+05
    6.3453060575e-03    1.5963592188e+05
    6.3644465990e-03    1.5793700000e+05
    6.3835908659e-03    1.5617431250e+05
    6.4027444459e-03    1.5440293750e+05
    6.4219115302e-03    1.5268559375e+05
    6.4410855994e-03    1.5102957812e+05
    6.4602680504e-03    1.4945501562e+05
    6.4794607460e-03    1.4793168750e+05
    6.4986641519e-03    1.4645106250e+05
    6.5178787336e-03    1.4498581250e+05
    6.5371058881e-03    1.4354184375e+05
    6.5563363023e-03    1.4211815625e+05
    6.5755699761e-03    1.4074042188e+05
    6.5948092379e-03    1.3941657812e+05
    6.6140629351e-03    1.3816964062e+05
    6.6333152354e-03    1.3698990625e+05
    6.6525745206e-03    1.3588487500e+05
    6.6718445159e-03    1.3485589062e+05
    6.6911154427e-03    1.3388126562e+05
    6.7104012705e-03    1.3296793750e+05
    6.7296870984e-03    1.3210681250e+05
    6.7489854991e-03    1.3130176562e+05
    6.7682852969e-03    1.3054541406e+05
    6.7875892855e-03    1.2983788281e+05
    6.8069072440e-03    1.2916769531e+05
    6.8262196146e-03    1.2853058594e+05
    6.8455408327e-03    1.2792357031e+05
    6.8648783490e-03    1.2733541406e+05
    6.8842126057e-03    1.2676990625e+05
    6.9035501219e-03    1.2621864844e+05
    6.9228983484e-03    1.2567512500e+05
    6.9422605447e-03    1.2515089844e+05
    6.9616222754e-03    1.2464208594e+05
    6.9809844717e-03    1.2415671094e+05
    7.0003494620e-03    1.2369292969e+05
    7.0197195746e-03    1.2325644531e+05
    7.0390999317e-03    1.2284577344e+05
    7.0584909990e-03    1.2246797656e+05
    7.0778946392e-03    1.2211206250e+05
    7.0973108523e-03    1.2177978906e+05
    7.1167377755e-03    1.2147144531e+05
    7.1361698210e-03    1.2117814844e+05
    7.1556069888e-03    1.2090205469e+05
    7.1750483476e-03    1.2064103906e+05
    7.1944966912e-03    1.2037591406e+05
    7.2139529511e-03    1.2012285156e+05
    7.2334166616e-03    1.1987496094e+05
    7.2528840974e-03    1.1962072656e+05
    7.2723543271e-03    1.1938312500e+05
    7.2918278165e-03    1.1915291406e+05
    7.3113050312e-03    1.1892818750e+05
    7.3307845742e-03    1.1871152344e+05
    7.3502692394e-03    1.1850241406e+05
    7.3697618209e-03    1.1831125000e+05
    7.3892641813e-03    1.1813021094e+05
    7.4087800458e-03    1.1796853125e+05
    7.4282912537e-03    1.1781696875e+05
    7.4477996677e-03    1.1767413281e+05
    7.4673094787e-03    1.1754949219e+05
    7.4868267402e-03    1.1742753906e+05
    7.5063589029e-03    1.1731583594e+05
    7.5258887373e-03    1.1719566406e+05
    7.5454111211e-03    1.1708044531e+05
    7.5649353676e-03    1.1696724219e+05
    7.5844703242e-03    1.1684516406e+05
    7.6040057465e-03    1.1673422656e+05
    7.6235276647e-03    1.1660632031e+05
    7.6430505142e-03    1.1648641406e+05
    7.6625877991e-03    1.1635858594e+05
    7.6821087860e-03    1.1623794531e+05
    7.7016241848e-03    1.1611416406e+05
    7.7211544849e-03    1.1598803906e+05
    7.7406810597e-03    1.1586018750e+05
    7.7602043748e-03    1.1573374219e+05
    7.7797495760e-03    1.1560828906e+05
    7.7992938459e-03    1.1548078906e+05
    7.8188432381e-03    1.1535789844e+05
    7.8384252265e-03    1.1522978906e+05
    7.8580006957e-03    1.1510116406e+05
    7.8775910661e-03    1.1496333594e+05
    7.8972103074e-03    1.1482102344e+05
    7.9168286175e-03    1.1467457031e+05
    7.9364804551e-03    1.1452019531e+05
    7.9561360180e-03    1.1436775000e+05
    7.9758102074e-03    1.1422202344e+05
    7.9955114052e-03    1.1407091406e+05
    8.0152126029e-03    1.1391561719e+05
    8.0349491909e-03    1.1376742969e+05
    8.0546662211e-03    1.1361927344e+05
    8.0743944272e-03    1.1347838281e+05
    8.0941170454e-03    1.1334197656e+05
    8.1138620153e-03    1.1322022656e+05
    8.1336386502e-03    1.1311572656e+05
    8.1534720957e-03    1.1301950000e+05
    8.1733558327e-03    1.1292982031e+05
    8.1932730973e-03    1.1285547656e+05
    8.2132071257e-03    1.1278313281e+05
    8.2330890000e-03    1.1272440625e+05
    8.2529615611e-03    1.1266378125e+05
    8.2727763802e-03    1.1261002344e+05
    8.2926023751e-03    1.1255743750e+05
    8.3124246448e-03    1.1251116406e+05
    8.3322748542e-03    1.1245925781e+05
    8.3521194756e-03    1.1240459375e+05
    8.3719678223e-03    1.1234227344e+05
    8.3917891607e-03    1.1227858594e+05
    8.4116021171e-03    1.1220991406e+05
    8.4314141423e-03    1.1213772656e+05
    8.4512168542e-03    1.1206500000e+05
    8.4710381925e-03    1.1199209375e+05
    8.4908353165e-03    1.1191653906e+05
    8.5106678307e-03    1.1183735156e+05
    8.5304882377e-03    1.1175263281e+05
    8.5503393784e-03    1.1166625000e+05
    8.5699046031e-03    1.1158346094e+05
    8.5892248899e-03    1.1150053906e+05
    8.6083402857e-03    1.1141741406e+05
    8.6272666231e-03    1.1133756250e+05
    8.6460309103e-03    1.1126075781e+05
    8.6646731943e-03    1.1117865625e+05
    8.6832325906e-03    1.1108968750e+05
    8.7017398328e-03    1.1100732031e+05
    8.7202098221e-03    1.1092257031e+05
    8.7386453524e-03    1.1083297656e+05
    8.7570473552e-03    1.1073963281e+05
    8.7753897533e-03    1.1064078906e+05
    8.7936492637e-03    1.1054131250e+05
    8.8118780404e-03    1.1043505469e+05
    8.8300397620e-03    1.1032847656e+05
    8.8481390849e-03    1.1021806250e+05
    8.8662039489e-03    1.1010202344e+05
    8.8842641562e-03    1.0998839844e+05
    8.9023411274e-03    1.0986360156e+05
    8.9204348624e-03    1.0973039844e+05
    8.9385388419e-03    1.0959521094e+05
    8.9566456154e-03    1.0945321875e+05
    8.9747514576e-03    1.0930475781e+05
    8.9928600937e-03    1.0915247656e+05
    9.0109808370e-03    1.0899137500e+05
    9.0291155502e-03    1.0883872656e+05
    9.0472688898e-03    1.0867277344e+05
    9.0654399246e-03    1.0850781250e+05
    9.0836230665e-03    1.0833928906e+05
    9.1018192470e-03    1.0817039844e+05
    9.1200266033e-03    1.0800059375e+05
    9.1382460669e-03    1.0782793750e+05
    9.1564757749e-03    1.0765610156e+05
    9.1747231781e-03    1.0747767969e+05
    9.1929892078e-03    1.0729778125e+05
    9.2112747952e-03    1.0711685156e+05
    9.2295790091e-03    1.0721408594e+05
    9.2479009181e-03    1.0702069531e+05
    9.2662386596e-03    1.0684135156e+05
    9.2845931649e-03    1.0666382031e+05
    9.3029672280e-03    1.0648868750e+05
    9.3213599175e-03    1.0633112500e+05
    9.3397712335e-03    1.0617816406e+05
    9.3582011759e-03    1.0603527344e+05
    9.3766497448e-03    1.0590262500e+05
    9.3951150775e-03    1.0577858594e+05
    9.4135999680e-03    1.0566616406e+05
    9.4321016222e-03    1.0556777344e+05
    9.4506228343e-03    1.0548441406e+05
    9.4691645354e-03    1.0541005469e+05
    9.4877239317e-03    1.0534572656e+05
    9.5063010231e-03    1.0529960156e+05
    9.5248948783e-03    1.0526235156e+05
    9.5435054973e-03    1.0523737500e+05
    9.5621328801e-03    1.0521824219e+05
    9.5807760954e-03    1.0520746094e+05
    9.5994332805e-03    1.0520046094e+05
    9.6181081608e-03    1.0520072656e+05
    9.6367979422e-03    1.0520166406e+05
    9.6555035561e-03    1.0520941406e+05
    9.6742231399e-03    1.0522050781e+05
    9.6929576248e-03    1.0522928125e+05
    9.7117051482e-03    1.0523621094e+05
    9.7304685041e-03    1.0524296875e+05
    9.7492448986e-03    1.0525109375e+05
    9.7680361941e-03    1.0525125000e+05
    9.7868405282e-03    1.0524750000e+05
    9.8056588322e-03    1.0524105469e+05
    9.8244920373e-03    1.0522902344e+05
    9.8433364183e-03    1.0521764844e+05
    9.8621929064e-03    1.0520016406e+05
    9.8810633644e-03    1.0517114844e+05
    9.8999459296e-03    1.0513541406e+05
    9.9188406020e-03    1.0510221875e+05
    9.9377483130e-03    1.0506247656e+05
    9.9566690624e-03    1.0501628906e+05
    9.9756028503e-03    1.0497810156e+05
    9.9945487455e-03    1.0494260156e+05
    1.0013507679e-02    1.0490678125e+05
    1.0032479651e-02    1.0487368750e+05
    1.0051463731e-02    1.0484164844e+05
    1.0070459917e-02    1.0481478906e+05
    1.0089469142e-02    1.0478871094e+05
    1.0108492337e-02    1.0476332031e+05
    1.0127528571e-02    1.0473860156e+05
    1.0146577843e-02    1.0470941406e+05
    1.0165639222e-02    1.0467496875e+05
    1.0184712708e-02    1.0463972656e+05
    1.0203798302e-02    1.0459780469e+05
    1.0222896002e-02    1.0454903906e+05
    1.0242006741e-02    1.0449172656e+05
    1.0261129588e-02    1.0442621094e+05
    1.0280264542e-02    1.0435197656e+05
    1.0299413465e-02    1.0427025000e+05
    1.0318575427e-02    1.0418464844e+05
    1.0337748565e-02    1.0408734375e+05
    1.0356934741e-02    1.0399002344e+05
    1.0376133956e-02    1.0389778906e+05
    1.0395346209e-02    1.0380352344e+05
    1.0414571501e-02    1.0371616406e+05
    1.0433809832e-02    1.0363744531e+05
    1.0453061201e-02    1.0356881250e+05
    1.0472324677e-02    1.0351624219e+05
    1.0491601191e-02    1.0347805469e+05
    1.0510892607e-02    1.0345153906e+05
    1.0530196130e-02    1.0343611719e+05
    1.0549513623e-02    1.0343097656e+05
    1.0568842292e-02    1.0342842969e+05
    1.0588183999e-02    1.0343243750e+05
    1.0607538745e-02    1.0342408594e+05
    1.0626907460e-02    1.0341781250e+05
    1.0646289214e-02    1.0339550000e+05
    1.0665684007e-02    1.0337396094e+05
    1.0685092770e-02    1.0333794531e+05
    1.0704516433e-02    1.0329642969e+05
    1.0723951273e-02    1.0324835156e+05
    1.0743400082e-02    1.0319353906e+05
    1.0762862861e-02    1.0314687500e+05
    1.0782338679e-02    1.0309217969e+05
    1.0801829398e-02    1.0304528125e+05
    1.0821334086e-02    1.0300049219e+05
    1.0840852745e-02    1.0296027344e+05
    1.0860386305e-02    1.0292547656e+05
    1.0879932903e-02    1.0289719531e+05
    1.0899493471e-02    1.0286583594e+05
    1.0919069871e-02    1.0283981250e+05
    1.0938662104e-02    1.0280550000e+05
    1.0958270170e-02    1.0276702344e+05
    1.0977892205e-02    1.0272310156e+05
    1.0997531936e-02    1.0268264844e+05
    1.1017187499e-02    1.0264250781e+05
    1.1036860757e-02    1.0260235156e+05
    1.1056551710e-02    1.0257138281e+05
    1.1076259427e-02    1.0254171875e+05
    1.1095987633e-02    1.0251717969e+05
    1.1115733534e-02    1.0248727344e+05
    1.1135498993e-02    1.0246128906e+05
    1.1155283079e-02    1.0242365625e+05
    1.1175086722e-02    1.0238565625e+05
    1.1194912717e-02    1.0234244531e+05
    1.1214758269e-02    1.0229775000e+05
    1.1234625243e-02    1.0225697656e+05
    1.1254511774e-02    1.0221678906e+05
    1.1274418794e-02    1.0218069531e+05
    1.1294347234e-02    1.0214071875e+05
    1.1314296164e-02    1.0210564844e+05
    1.1334266514e-02    1.0206088281e+05
    1.1354257353e-02    1.0201782031e+05
    1.1374268681e-02    1.0197453906e+05
    1.1394302361e-02    1.0192800781e+05
    1.1414355598e-02    1.0188069531e+05
    1.1434430256e-02    1.0183303906e+05
    1.1454525404e-02    1.0178585156e+05
    1.1474640109e-02    1.0174742969e+05
    1.1494777165e-02    1.0169914844e+05
    1.1514934711e-02    1.0165035156e+05
    1.1535113677e-02    1.0160200000e+05
    1.1555313133e-02    1.0155735156e+05
    1.1575534008e-02    1.0152205469e+05
    1.1595774442e-02    1.0148661719e+05
    1.1616035365e-02    1.0146228125e+05
    1.1636316776e-02    1.0144807031e+05
    1.1656619608e-02    1.0145160156e+05
    1.1676942930e-02    1.0147408594e+05
    1.1697287671e-02    1.0153747656e+05
    1.1717652902e-02    1.0164016406e+05
    1.1738038622e-02    1.0180005469e+05
    1.1758443899e-02    1.0204072656e+05
    1.1778870597e-02    1.0237425781e+05
    1.1799318716e-02    1.0282232031e+05
    1.1819788255e-02    1.0341549219e+05
    1.1840280145e-02    1.0416433594e+05
    1.1860790662e-02    1.0507439844e+05
    1.1881321669e-02    1.0612746094e+05
    1.1901874095e-02    1.0728941406e+05
    1.1922447011e-02    1.0849152344e+05
    1.1943042278e-02    1.0964664844e+05
    1.1963658035e-02    1.1067071875e+05
    1.1984295212e-02    1.1148169531e+05
    1.2004952878e-02    1.1203266406e+05
    1.2025631964e-02    1.1229927344e+05
    1.2046331540e-02    1.1229015625e+05
    1.2067052536e-02    1.1203536719e+05
    1.2087795883e-02    1.1158008594e+05
    1.2108558789e-02    1.1098402344e+05
    1.2129344046e-02    1.1030306250e+05
    1.2150149792e-02    1.0959656250e+05
    1.2170976959e-02    1.0890855469e+05
    1.2191825546e-02    1.0828766406e+05
    1.2212695554e-02    1.0774853906e+05
    1.2233586982e-02    1.0730772656e+05
    1.2254500762e-02    1.0694935156e+05
    1.2275436893e-02    1.0663817969e+05
    1.2296394445e-02    1.0634342969e+05
    1.2317374349e-02    1.0602543750e+05
    1.2338375673e-02    1.0565753125e+05
    1.2359398417e-02    1.0523178125e+05
    1.2380442582e-02    1.0474472656e+05
    1.2401508167e-02    1.0421578906e+05
    1.2422595173e-02    1.0366710156e+05
    1.2443703599e-02    1.0311910156e+05
    1.2464834377e-02    1.0259131250e+05
    1.2485986575e-02    1.0210555469e+05
    1.2507158332e-02    1.0167611719e+05
    1.2528351508e-02    1.0131252344e+05
    1.2549565174e-02    1.0100893750e+05
    1.2570801191e-02    1.0076862500e+05
    1.2592058629e-02    1.0056933594e+05
    1.2613337487e-02    1.0039838281e+05
    1.2634636834e-02    1.0024399219e+05
    1.2655957602e-02    1.0010502344e+05
    1.2677297927e-02    9.9979039062e+04
    1.2698660605e-02    9.9873335938e+04
    1.2720043771e-02    9.9784343750e+04
    1.2741449289e-02    9.9711062500e+04
    1.2762876227e-02    9.9655851562e+04
    1.2784325518e-02    9.9620664062e+04
    1.2805794366e-02    9.9608851562e+04
    1.2827285565e-02    9.9621335938e+04
    1.2848797254e-02    9.9646304688e+04
    1.2870330364e-02    9.9681906250e+04
    1.2891885825e-02    9.9713070312e+04
    1.2913462706e-02    9.9730539062e+04
    1.2935061008e-02    9.9726210938e+04
    1.2956679799e-02    9.9699851562e+04
    1.2978320010e-02    9.9651937500e+04
    1.2999981642e-02    9.9584851562e+04
    1.3021663763e-02    9.9505976562e+04
    1.3043368235e-02    9.9435664062e+04
    1.3065092266e-02    9.9366476562e+04
    1.3086837716e-02    9.9318656250e+04
    1.3108605519e-02    9.9301445312e+04
    1.3130392879e-02    9.9325164062e+04
    1.3152201660e-02    9.9376343750e+04
    1.3174032792e-02    9.9452585938e+04
    1.3195885345e-02    9.9541351562e+04
    1.3217759319e-02    9.9620523438e+04
    1.3239653781e-02    9.9688898438e+04
    1.3261569664e-02    9.9735101562e+04
    1.3283506967e-02    9.9758085938e+04
    1.3305463828e-02    9.9765335938e+04
    1.3327440247e-02    9.9747148438e+04
    1.3349435292e-02    9.9723437500e+04
    1.3371448033e-02    9.9703914062e+04
    1.3393475674e-02    9.9680398438e+04
    1.3415516354e-02    9.9670695312e+04
    1.3437564485e-02    9.9666023438e+04
    1.3459613547e-02    9.9669460938e+04
    1.3481658883e-02    9.9682476562e+04
    1.3503690250e-02    9.9692257812e+04
    1.3525702059e-02    9.9702210938e+04
    1.3547683135e-02    9.9707343750e+04
    1.3569628820e-02    9.9708679688e+04
    1.3591531664e-02    9.9711507812e+04
    1.3613392599e-02    9.9710445312e+04
    1.3635210693e-02    9.9706101562e+04
    1.3656994328e-02    9.9697023438e+04
    1.3678749092e-02    9.9695148438e+04
    1.3700488023e-02    9.9692289062e+04
    1.3722228818e-02    9.9690523438e+04
    1.3743981719e-02    9.9696968750e+04
    1.3765762560e-02    9.9709468750e+04
    1.3787578791e-02    9.9726898438e+04
    1.3809437864e-02    9.9756289062e+04
    1.3831341639e-02    9.9788835938e+04
    1.3853288256e-02    9.9829164062e+04
    1.3875273056e-02    9.9867929688e+04
    1.3897285797e-02    9.9905101562e+04
    1.3919321820e-02    9.9943750000e+04
    1.3941374607e-02    9.9984585938e+04
    1.3963440433e-02    1.0002659375e+05
    1.3985517435e-02    1.0006630469e+05
    1.4007603750e-02    1.0010727344e+05
    1.4029704034e-02    1.0015964844e+05
    1.4051820152e-02    1.0020503125e+05
    1.4073957689e-02    1.0025153906e+05
    1.4096121304e-02    1.0030666406e+05
    1.4118315652e-02    1.0035781250e+05
    1.4140545391e-02    1.0040714844e+05
    1.4162814245e-02    1.0045278906e+05
    1.4185124077e-02    1.0049808594e+05
    1.4207473956e-02    1.0053810156e+05
    1.4229862019e-02    1.0057759375e+05
    1.4252286404e-02    1.0061253125e+05
    1.4274741523e-02    1.0064107031e+05
    1.4297228307e-02    1.0066785156e+05
    1.4319745824e-02    1.0068853125e+05
    1.4342290349e-02    1.0070165625e+05
    1.4364863746e-02    1.0071246094e+05
    1.4387467876e-02    1.0072033594e+05
    1.4410103671e-02    1.0072474219e+05
    1.4432771131e-02    1.0071647656e+05
    1.4455472119e-02    1.0070924219e+05
    1.4478209428e-02    1.0069960156e+05
    1.4500979334e-02    1.0068177344e+05
    1.4523783699e-02    1.0067128125e+05
    1.4546621591e-02    1.0065128125e+05
    1.4569494873e-02    1.0063814844e+05
    1.4592399821e-02    1.0062603125e+05
    1.4615339227e-02    1.0061710156e+05
    1.4638305642e-02    1.0060752344e+05
    1.4661304653e-02    1.0059803125e+05
    1.4684336260e-02    1.0058835156e+05
    1.4707398601e-02    1.0057811719e+05
    1.4730494469e-02    1.0057233594e+05
    1.4753622934e-02    1.0056840625e+05
    1.4776783995e-02    1.0056383594e+05
    1.4799979515e-02    1.0055715625e+05
    1.4823205769e-02    1.0055239844e+05
    1.4846466482e-02    1.0054735156e+05
    1.4869757928e-02    1.0054347656e+05
    1.4893081971e-02    1.0053965625e+05
    1.4916437678e-02    1.0054028906e+05
    1.4939822257e-02    1.0053596094e+05
    1.4963239431e-02    1.0052977344e+05
    1.4986685477e-02    1.0051984375e+05
    1.5010161325e-02    1.0051353125e+05
    1.5033668838e-02    1.0051083594e+05
    1.5057205223e-02    1.0050837500e+05
    1.5080772340e-02    1.0051655469e+05
    1.5104367398e-02    1.0052653906e+05
    1.5127992257e-02    1.0054618750e+05
    1.5151646920e-02    1.0057353906e+05
    1.5175330453e-02    1.0061325781e+05
    1.5199041925e-02    1.0065941406e+05
    1.5222782269e-02    1.0070913281e+05
    1.5246548690e-02    1.0076587500e+05
    1.5270343982e-02    1.0082534375e+05
    1.5294168144e-02    1.0088580469e+05
    1.5318016522e-02    1.0093583594e+05
    1.5341891907e-02    1.0098950000e+05
    1.5365792438e-02    1.0103443750e+05
    1.5389721841e-02    1.0106906250e+05
    1.5413676389e-02    1.0109834375e+05
    1.5437657945e-02    1.0112174219e+05
    1.5461664647e-02    1.0113671875e+05
    1.5485695563e-02    1.0114935156e+05
    1.5509752557e-02    1.0115217969e+05
    1.5533835627e-02    1.0115746875e+05
    1.5557944775e-02    1.0116439844e+05
    1.5582079068e-02    1.0117084375e+05
    1.5606240369e-02    1.0117521094e+05
    1.5630424023e-02    1.0118330469e+05
    1.5654634684e-02    1.0119363281e+05
    1.5678871423e-02    1.0120797656e+05
    1.5703132376e-02    1.0122121875e+05
    1.5727419406e-02    1.0124421094e+05
    1.5751728788e-02    1.0126846094e+05
    1.5776060522e-02    1.0129200000e+05
    1.5800418332e-02    1.0131980469e+05
    1.5824800357e-02    1.0134597656e+05
    1.5849204734e-02    1.0137803906e+05
    1.5873633325e-02    1.0140828906e+05
    1.5898084268e-02    1.0143100000e+05
    1.5922557563e-02    1.0146057031e+05
    1.5947058797e-02    1.0148514844e+05
    1.5971582383e-02    1.0150443750e+05
    1.5996130183e-02    1.0152859375e+05
    1.6020702198e-02    1.0154286719e+05
    1.6045298427e-02    1.0155665625e+05
    1.6069920734e-02    1.0157305469e+05
    1.6094569117e-02    1.0157975000e+05
    1.6119243577e-02    1.0158402344e+05
    1.6143942252e-02    1.0158707031e+05
    1.6168667004e-02    1.0158902344e+05
    1.6193419695e-02    1.0158956250e+05
    1.6218200326e-02    1.0158816406e+05
    1.6243007034e-02    1.0158552344e+05
    1.6267839819e-02    1.0158125781e+05
    1.6292702407e-02    1.0156902344e+05
    1.6317596659e-02    1.0155409375e+05
    1.6342513263e-02    1.0154046094e+05
    1.6367461532e-02    1.0153135156e+05
    1.6392435879e-02    1.0152443750e+05
    1.6417443752e-02    1.0152385156e+05
    1.6442479566e-02    1.0152580469e+05
    1.6467543319e-02    1.0153362500e+05
    1.6492636874e-02    1.0154093750e+05
    1.6517756507e-02    1.0155590625e+05
    1.6542907804e-02    1.0157946094e+05
    1.6568088904e-02    1.0160783594e+05
    1.6593271866e-02    1.0163389844e+05
    1.6618426889e-02    1.0166200781e+05
    1.6643559560e-02    1.0169275000e+05
    1.6668669879e-02    1.0172960156e+05
    1.6693757847e-02    1.0176344531e+05
    1.6718825325e-02    1.0179947656e+05
    1.6743874177e-02    1.0183158594e+05
    1.6768900678e-02    1.0185427344e+05
    1.6793908551e-02    1.0187371094e+05
    1.6818899661e-02    1.0188733594e+05
    1.6843874007e-02    1.0190666406e+05
    1.6868829727e-02    1.0191528906e+05
    1.6893770546e-02    1.0191288281e+05
    1.6918692738e-02    1.0191300000e+05
    1.6943598166e-02    1.0191132031e+05
    1.6968490556e-02    1.0190271094e+05
    1.6993366182e-02    1.0189758594e+05
    1.7018226907e-02    1.0188905469e+05
    1.7043072730e-02    1.0187768750e+05
    1.7067901790e-02    1.0186947656e+05
    1.7092714086e-02    1.0185761719e+05
    1.7117511481e-02    1.0184752344e+05
    1.7142292112e-02    1.0184631250e+05
    1.7167057842e-02    1.0183756250e+05
    1.7191808671e-02    1.0183685156e+05
    1.7216544598e-02    1.0183122656e+05
    1.7241263762e-02    1.0182810156e+05
    1.7265968025e-02    1.0182435156e+05
    1.7290659249e-02    1.0182702344e+05
    1.7315333709e-02    1.0183121094e+05
    1.7339993268e-02    1.0182971094e+05
    1.7364639789e-02    1.0183315625e+05
    1.7389267683e-02    1.0183608594e+05
    1.7413880676e-02    1.0184352344e+05
    1.7438478768e-02    1.0184637500e+05
    1.7463061959e-02    1.0185030469e+05
    1.7487626523e-02    1.0185381250e+05
    1.7512176186e-02    1.0185764844e+05
    1.7536709085e-02    1.0187006250e+05
    1.7561223358e-02    1.0189032031e+05
    1.7585720867e-02    1.0191777344e+05
    1.7610201612e-02    1.0195049219e+05
    1.7634663731e-02    1.0199193750e+05
    1.7659107223e-02    1.0204797656e+05
    1.7683532089e-02    1.0212438281e+05
    1.7707940191e-02    1.0221783594e+05
    1.7732329667e-02    1.0233808594e+05
    1.7756698653e-02    1.0245858594e+05
    1.7781050876e-02    1.0260253906e+05
    1.7805384472e-02    1.0275484375e+05
    1.7829699442e-02    1.0290613281e+05
    1.7853999510e-02    1.0305782031e+05
    1.7878280953e-02    1.0319602344e+05
    1.7902545631e-02    1.0330683594e+05
    1.7926793545e-02    1.0338902344e+05
    1.7951028422e-02    1.0343602344e+05
    1.7975246534e-02    1.0344633594e+05
    1.7999447882e-02    1.0341285156e+05
    1.8023636192e-02    1.0333125000e+05
    1.8047811463e-02    1.0320953906e+05
    1.8071975559e-02    1.0303903906e+05
    1.8096126616e-02    1.0282810156e+05
    1.8120266497e-02    1.0257521875e+05
    1.8144397065e-02    1.0230583594e+05
    1.8168520182e-02    1.0202733594e+05
    1.8192630261e-02    1.0175125000e+05
    1.8216732889e-02    1.0148975781e+05
    1.8240824342e-02    1.0125600781e+05
    1.8264908344e-02    1.0104846094e+05
    1.8288983032e-02    1.0087360156e+05
    1.8313048407e-02    1.0073492969e+05
    1.8337102607e-02    1.0063010156e+05
    1.8361147493e-02    1.0055715625e+05
    1.8385183066e-02    1.0051375781e+05
    1.8409207463e-02    1.0049456250e+05
    1.8433224410e-02    1.0049871094e+05
    1.8457230181e-02    1.0052012500e+05
    1.8481226638e-02    1.0055941406e+05
    1.8505210057e-02    1.0061237500e+05
    1.8529184163e-02    1.0068014844e+05
    1.8553148955e-02    1.0075591406e+05
    1.8577100709e-02    1.0083258594e+05
    1.8601041287e-02    1.0091440625e+05
    1.8624972552e-02    1.0099716406e+05
    1.8648892641e-02    1.0108312500e+05
    1.8672801554e-02    1.0116803906e+05
    1.8696699291e-02    1.0124347656e+05
    1.8720587716e-02    1.0131405469e+05
    1.8744463101e-02    1.0137628125e+05
    1.8768329173e-02    1.0143227344e+05
    1.8792184070e-02    1.0147506250e+05
    1.8816027790e-02    1.0151907031e+05
    1.8839860335e-02    1.0156528906e+05
    1.8863683566e-02    1.0161249219e+05
    1.8887493759e-02    1.0166142969e+05
    1.8911294639e-02    1.0171033594e+05
    1.8935086206e-02    1.0175944531e+05
    1.8958866596e-02    1.0181024219e+05
    1.8982635811e-02    1.0186768750e+05
    1.9006397575e-02    1.0192564844e+05
    1.9030146301e-02    1.0199046094e+05
    1.9053885713e-02    1.0205178125e+05
    1.9077615812e-02    1.0210891406e+05
    1.9101334736e-02    1.0216140625e+05
    1.9125042483e-02    1.0220814844e+05
    1.9148740917e-02    1.0224883594e+05
    1.9172428176e-02    1.0228772656e+05
    1.9196104258e-02    1.0231461719e+05
    1.9219771028e-02    1.0234342969e+05
    1.9243424758e-02    1.0236003906e+05
    1.9267069176e-02    1.0238347656e+05
    1.9290700555e-02    1.0239833594e+05
    1.9314322621e-02    1.0241108594e+05
    1.9337931648e-02    1.0241514844e+05
    1.9361529499e-02    1.0241041406e+05
    1.9385114312e-02    1.0240667969e+05
    1.9408687949e-02    1.0239535156e+05
    1.9432250410e-02    1.0238050000e+05
    1.9455801696e-02    1.0236731250e+05
    1.9479339942e-02    1.0234189844e+05
    1.9502865151e-02    1.0232436719e+05
    1.9526379183e-02    1.0230386719e+05
    1.9549878314e-02    1.0228753906e+05
    1.9573366269e-02    1.0227009375e+05
    1.9596841186e-02    1.0225377344e+05
    1.9620303065e-02    1.0224322656e+05
    1.9643751904e-02    1.0223921094e+05
    1.9667187706e-02    1.0223966406e+05
    1.9690606743e-02    1.0225186719e+05
    1.9714014605e-02    1.0226225000e+05
    1.9737409428e-02    1.0228337500e+05
    1.9760791212e-02    1.0230792969e+05
    1.9784159958e-02    1.0233772656e+05
    1.9807513803e-02    1.0236153125e+05
    1.9830854610e-02    1.0239238281e+05
    1.9854182377e-02    1.0243052344e+05
    1.9877497107e-02    1.0246555469e+05
    1.9900798798e-02    1.0250293750e+05
    1.9924087450e-02    1.0253665625e+05
    1.9947361201e-02    1.0256452344e+05
    1.9970623776e-02    1.0259612500e+05
    1.9993871450e-02    1.0261711719e+05
    2.0017107949e-02    1.0264258594e+05
    2.0040329546e-02    1.0265982031e+05
    2.0063538104e-02    1.0266730469e+05
    2.0086731762e-02    1.0267139844e+05
    2.0109914243e-02    1.0266643750e+05
    2.0133081824e-02    1.0266182031e+05
    2.0156236365e-02    1.0264738281e+05
    2.0179376006e-02    1.0263361719e+05
    2.0202504471e-02    1.0261638281e+05
    2.0225618035e-02    1.0259086719e+05
    2.0248720422e-02    1.0256221094e+05
    2.0271807909e-02    1.0253959375e+05
    2.0294882357e-02    1.0250953125e+05
    2.0317947492e-02    1.0248109375e+05
    2.0340997726e-02    1.0244453906e+05
    2.0364036784e-02    1.0240597656e+05
    2.0387060940e-02    1.0236941406e+05
    2.0410073921e-02    1.0233091406e+05
    2.0433073863e-02    1.0229025000e+05
    2.0456060767e-02    1.0225150000e+05
    2.0479036495e-02    1.0221606250e+05
    2.0501999184e-02    1.0217239844e+05
    2.0524948835e-02    1.0212819531e+05
    2.0547885448e-02    1.0208894531e+05
    2.0570809022e-02    1.0205008594e+05
    2.0593719557e-02    1.0202132031e+05
    2.0616617054e-02    1.0199393750e+05
    2.0639499649e-02    1.0196693750e+05
    2.0662369207e-02    1.0194580469e+05
    2.0685223863e-02    1.0192450000e+05
    2.0708063617e-02    1.0191014844e+05
    2.0730890334e-02    1.0189796875e+05
    2.0753700286e-02    1.0188810156e+05
    2.0776495337e-02    1.0187618750e+05
    2.0799275488e-02    1.0187075781e+05
    2.0822042599e-02    1.0187578906e+05
    2.0844791085e-02    1.0187403125e+05
    2.0867524669e-02    1.0186992969e+05
    2.0890241489e-02    1.0186571094e+05
    2.0912945271e-02    1.0187174219e+05
    2.0935632288e-02    1.0187975781e+05
    2.0958306268e-02    1.0187394531e+05
    2.0980965346e-02    1.0187890625e+05
    2.1003607661e-02    1.0187846094e+05
    2.1026238799e-02    1.0187821094e+05
    2.1048855036e-02    1.0187539844e+05
    2.1071458235e-02    1.0187010156e+05
    2.1094048396e-02    1.0186487500e+05
    2.1116625518e-02    1.0186183594e+05
    2.1139191464e-02    1.0185900781e+05
    2.1161744371e-02    1.0185643750e+05
    2.1184286103e-02    1.0185008594e+05
    2.1206818521e-02    1.0184928906e+05
    2.1229337901e-02    1.0184872656e+05
    2.1251846105e-02    1.0184535156e+05
    2.1274344996e-02    1.0184772656e+05
    2.1296832711e-02    1.0184532031e+05
    2.1319312975e-02    1.0184347656e+05
    2.1341778338e-02    1.0184178125e+05
    2.1364232525e-02    1.0184006250e+05
    2.1386675537e-02    1.0184941406e+05
    2.1409107372e-02    1.0185538281e+05
    2.1431528032e-02    1.0186828906e+05
    2.1453931928e-02    1.0187771094e+05
    2.1476324648e-02    1.0188806250e+05
    2.1498700604e-02    1.0189897656e+05
    2.1521063522e-02    1.0191018750e+05
    2.1543409675e-02    1.0192147656e+05
    2.1565740928e-02    1.0193338281e+05
    2.1588053554e-02    1.0194219531e+05
    2.1610351279e-02    1.0195105469e+05
    2.1632634103e-02    1.0195763281e+05
    2.1654898301e-02    1.0196324219e+05
    2.1677147597e-02    1.0196842969e+05
    2.1699378267e-02    1.0197278906e+05
    2.1721594036e-02    1.0197689844e+05
    2.1743793041e-02    1.0197771094e+05
    2.1765975282e-02    1.0197822656e+05
    2.1788140759e-02    1.0198114844e+05
    2.1810289472e-02    1.0198346875e+05
    2.1832419559e-02    1.0198528906e+05
    2.1854531020e-02    1.0198278906e+05
    2.1876627579e-02    1.0197937500e+05
    2.1898705512e-02    1.0198032031e+05
    2.1920768544e-02    1.0198157031e+05
    2.1942811087e-02    1.0198328125e+05
    2.1964838728e-02    1.0198138281e+05
    2.1986849606e-02    1.0198360156e+05
    2.2008845583e-02    1.0198596094e+05
    2.2030822933e-02    1.0198964844e+05
    2.2052785382e-02    1.0199275000e+05
    2.2074732929e-02    1.0199503906e+05
    2.2096665576e-02    1.0199821094e+05
    2.2118583322e-02    1.0199182031e+05
    2.2140489891e-02    1.0199414844e+05
    2.2162377834e-02    1.0199764844e+05
    2.2184254602e-02    1.0200047656e+05
    2.2206118330e-02    1.0200344531e+05
    2.2227969021e-02    1.0200666406e+05
    2.2249806672e-02    1.0200014844e+05
    2.2271629423e-02    1.0200782031e+05
    2.2293440998e-02    1.0201075781e+05
    2.2315241396e-02    1.0200903906e+05
    2.2337028757e-02    1.0201094531e+05
    2.2358803079e-02    1.0201227344e+05
    2.2380566224e-02    1.0201366406e+05
    2.2402318195e-02    1.0201003906e+05
    2.2424057126e-02    1.0201535156e+05
    2.2445784882e-02    1.0202125781e+05
    2.2467501462e-02    1.0201833594e+05
    2.2489206865e-02    1.0202337500e+05
    2.2510899231e-02    1.0202509375e+05
    2.2532582283e-02    1.0202681250e+05
    2.2554252297e-02    1.0202813281e+05
    2.2575911134e-02    1.0203489844e+05
    2.2597560659e-02    1.0204716406e+05
    2.2619199008e-02    1.0204978125e+05
    2.2640828043e-02    1.0205243750e+05
    2.2662445903e-02    1.0205566406e+05
    2.2684050724e-02    1.0205825000e+05
    2.2705646232e-02    1.0206063281e+05
    2.2727232426e-02    1.0206557031e+05
    2.2748809308e-02    1.0207027344e+05
    2.2770375013e-02    1.0207902344e+05
    2.2791929543e-02    1.0207256250e+05
    2.2813472897e-02    1.0207463281e+05
    2.2835006937e-02    1.0207590625e+05
    2.2856531665e-02    1.0207647656e+05
    2.2878047079e-02    1.0207193750e+05
    2.2899549454e-02    1.0206780469e+05
    2.2921044379e-02    1.0206291406e+05
    2.2942528129e-02    1.0205760156e+05
    2.2964000702e-02    1.0205767969e+05
    2.2985465825e-02    1.0206505469e+05
    2.3006917909e-02    1.0205835156e+05
    2.3028360680e-02    1.0205864844e+05
    2.3049792275e-02    1.0205891406e+05
    2.3071214557e-02    1.0205700000e+05
    2.3092625663e-02    1.0204999219e+05
    2.3114029318e-02    1.0205357031e+05
    2.3135419935e-02    1.0205789844e+05
    2.3156799376e-02    1.0205822656e+05
    2.3178169504e-02    1.0206318750e+05
    2.3199530318e-02    1.0206140625e+05
    2.3220879957e-02    1.0206003125e+05
    2.3242218420e-02    1.0206072656e+05
    2.3263547570e-02    1.0206260156e+05
    2.3284865543e-02    1.0206978906e+05
    2.3306174204e-02    1.0207060156e+05
    2.3327469826e-02    1.0207150000e+05
    2.3348756135e-02    1.0207246875e+05
    2.3370031267e-02    1.0207314844e+05
    2.3391297087e-02    1.0207362500e+05
    2.3412553594e-02    1.0207783594e+05
    2.3433798924e-02    1.0208682031e+05
    2.3455033079e-02    1.0209610156e+05
    2.3476256058e-02    1.0210271094e+05
    2.3497469723e-02    1.0212169531e+05
    2.3518672213e-02    1.0213260156e+05
    2.3539865389e-02    1.0214871094e+05
    2.3561049253e-02    1.0216262500e+05
    2.3582221940e-02    1.0217309375e+05
    2.3603385314e-02    1.0218996094e+05
    2.3624535650e-02    1.0220843750e+05
    2.3645676672e-02    1.0222750000e+05
    2.3666808382e-02    1.0224792969e+05
    2.3687927052e-02    1.0226896875e+05
    2.3709038273e-02    1.0229094531e+05
    2.3730138317e-02    1.0230862500e+05
    2.3751227185e-02    1.0232725000e+05
    2.3772306740e-02    1.0234108594e+05
    2.3793375120e-02    1.0235521094e+05
    2.3814432323e-02    1.0236885156e+05
    2.3835480213e-02    1.0238211719e+05
    2.3856516927e-02    1.0239258594e+05
    2.3877544329e-02    1.0239514844e+05
    2.3898560554e-02    1.0238916406e+05
    2.3919565603e-02    1.0238900000e+05
    2.3940561339e-02    1.0238087500e+05
    2.3961545900e-02    1.0237555469e+05
    2.3982519284e-02    1.0236147656e+05
    2.4003483355e-02    1.0234324219e+05
    2.4024436250e-02    1.0231741406e+05
    2.4045377970e-02    1.0229158594e+05
    2.4066310376e-02    1.0225777344e+05
    2.4087233469e-02    1.0221561719e+05
    2.4108145386e-02    1.0217497656e+05
    2.4129044265e-02    1.0213121094e+05
    2.4149935693e-02    1.0208733594e+05
    2.4170814082e-02    1.0204602344e+05
    2.4191683158e-02    1.0201438281e+05
    2.4212542921e-02    1.0198637500e+05
    2.4233391508e-02    1.0195902344e+05
    2.4254228920e-02    1.0193978906e+05
    2.4275057018e-02    1.0192180469e+05
    2.4295873940e-02    1.0191982031e+05
    2.4316681549e-02    1.0192253906e+05
    2.4337477982e-02    1.0193724219e+05
    2.4358265102e-02    1.0196257031e+05
    2.4379042909e-02    1.0198488281e+05
    2.4399809539e-02    1.0201565625e+05
    2.4420566857e-02    1.0204782031e+05
    2.4441312999e-02    1.0207778125e+05
    2.4462047964e-02    1.0210652344e+05
    2.4482775480e-02    1.0213796875e+05
    2.4503491819e-02    1.0216209375e+05
    2.4524198845e-02    1.0218783594e+05
    2.4544894695e-02    1.0221191406e+05
    2.4565581232e-02    1.0223728125e+05
    2.4586258456e-02    1.0225660156e+05
    2.4606924504e-02    1.0228037500e+05
    2.4627581239e-02    1.0229516406e+05
    2.4648228660e-02    1.0230066406e+05
    2.4668866768e-02    1.0231434375e+05
    2.4689495564e-02    1.0232028906e+05
    2.4710113183e-02    1.0233061719e+05
    2.4730721489e-02    1.0234249219e+05
    2.4751318619e-02    1.0235521875e+05
    2.4771906435e-02    1.0236753125e+05
    2.4792486802e-02    1.0237525000e+05
    2.4813055992e-02    1.0238242969e+05
    2.4833614007e-02    1.0239440625e+05
    2.4854162708e-02    1.0240569531e+05
    2.4874702096e-02    1.0241633594e+05
    2.4895232171e-02    1.0242141406e+05
    2.4915752932e-02    1.0242694531e+05
    2.4936262518e-02    1.0243669531e+05
    2.4956764653e-02    1.0243687500e+05
    2.4977253750e-02    1.0244503906e+05
    2.4997735396e-02    1.0244402344e+05
    2.5018205866e-02    1.0245166406e+05
    2.5038668886e-02    1.0244910156e+05
    2.5059120730e-02    1.0245093750e+05
    2.5079563260e-02    1.0245218750e+05
    2.5099996477e-02    1.0244852344e+05
    2.5120420381e-02    1.0244302344e+05
    2.5140833110e-02    1.0244693750e+05
    2.5161236525e-02    1.0244077344e+05
    2.5181630626e-02    1.0244369531e+05
    2.5202017277e-02    1.0243635156e+05
    2.5222390890e-02    1.0242875781e+05
    2.5242757052e-02    1.0242987500e+05
    2.5263112038e-02    1.0242817969e+05
    2.5283459574e-02    1.0242235156e+05
    2.5303795934e-02    1.0242307031e+05
    2.5324124843e-02    1.0242355469e+05
    2.5344440714e-02    1.0241415625e+05
    2.5364749134e-02    1.0241386719e+05
    2.5385048240e-02    1.0240303906e+05
    2.5405339897e-02    1.0240189844e+05
    2.5425618514e-02    1.0239991406e+05
    2.5445887819e-02    1.0239792969e+05
    2.5466147810e-02    1.0238602344e+05
    2.5486400351e-02    1.0238189844e+05
    2.5506639853e-02    1.0236819531e+05
    2.5526873767e-02    1.0235374219e+05
    2.5547094643e-02    1.0234562500e+05
    2.5567308068e-02    1.0233996875e+05
    2.5587510318e-02    1.0233605469e+05
    2.5607703254e-02    1.0233022656e+05
    2.5627886876e-02    1.0231735156e+05
    2.5648061186e-02    1.0230850000e+05
    2.5668226182e-02    1.0230153906e+05
    2.5688380003e-02    1.0228443750e+05
    2.5708526373e-02    1.0227487500e+05
    2.5728661567e-02    1.0225977344e+05
    2.5748789310e-02    1.0225589844e+05
    2.5768904015e-02    1.0225216406e+05
    2.5789011270e-02    1.0224400000e+05
    2.5809109211e-02    1.0223534375e+05
    2.5829195976e-02    1.0222702344e+05
    2.5849273428e-02    1.0221883594e+05
    2.5869343430e-02    1.0221118750e+05
    2.5889402255e-02    1.0221311719e+05
    2.5909451768e-02    1.0220822656e+05
    2.5929493830e-02    1.0220389844e+05
    2.5949522853e-02    1.0220259375e+05
    2.5969544426e-02    1.0219709375e+05
    2.5989556685e-02    1.0219171094e+05
    2.6009559631e-02    1.0219594531e+05
    2.6029553264e-02    1.0219619531e+05
    2.6049537584e-02    1.0219722656e+05
    2.6069512591e-02    1.0219402344e+05
    2.6089478284e-02    1.0219753125e+05
    2.6109432802e-02    1.0219975000e+05
    2.6129379869e-02    1.0220003906e+05
    2.6149315760e-02    1.0220356250e+05
    2.6169244200e-02    1.0220335156e+05
    2.6189163327e-02    1.0221214844e+05
    2.6209073141e-02    1.0221264844e+05
    2.6228975505e-02    1.0221321094e+05
    2.6248866692e-02    1.0221886719e+05
    2.6268748567e-02    1.0222417969e+05
    2.6288621128e-02    1.0222860156e+05
    2.6308484375e-02    1.0223794531e+05
    2.6328338310e-02    1.0224067969e+05
    2.6348184794e-02    1.0224834375e+05
    2.6368021965e-02    1.0225678906e+05
    2.6387847960e-02    1.0226065625e+05
    2.6407664642e-02    1.0226906250e+05
    2.6427472010e-02    1.0227327344e+05
    2.6447271928e-02    1.0228141406e+05
    2.6467062533e-02    1.0228572656e+05
    2.6486843824e-02    1.0228733594e+05
    2.6506617665e-02    1.0229390625e+05
    2.6526380330e-02    1.0229769531e+05
    2.6546133682e-02    1.0230186719e+05
    2.6565877721e-02    1.0230560156e+05
    2.6585612446e-02    1.0230975000e+05
    2.6605339721e-02    1.0231639844e+05
    2.6625057682e-02    1.0231860156e+05
    2.6644766331e-02    1.0232344531e+05
    2.6664465666e-02    1.0232837500e+05
    2.6684155688e-02    1.0233350000e+05
    2.6703836396e-02    1.0233821875e+05
    2.6723509654e-02    1.0234209375e+05
    2.6743173599e-02    1.0234533594e+05
    2.6762828231e-02    1.0233803906e+05
    2.6782475412e-02    1.0234058594e+05
    2.6802113280e-02    1.0234285156e+05
    2.6821739972e-02    1.0234812500e+05
    2.6841359213e-02    1.0234883594e+05
    2.6860967278e-02    1.0235175000e+05
    2.6880569756e-02    1.0235439844e+05
    2.6900164783e-02    1.0235183594e+05
    2.6919748634e-02    1.0234894531e+05
    2.6939325035e-02    1.0234996875e+05
    2.6958892122e-02    1.0235052344e+05
    2.6978449896e-02    1.0235158594e+05
    2.6997998357e-02    1.0235227344e+05
    2.7017539367e-02    1.0235300781e+05
    2.7037071064e-02    1.0234674219e+05
    2.7056595311e-02    1.0234465625e+05
    2.7076110244e-02    1.0234475781e+05
    2.7095617726e-02    1.0234458594e+05
    2.7115115896e-02    1.0234480469e+05
    2.7134604752e-02    1.0234957031e+05
    2.7154086158e-02    1.0234525000e+05
    2.7173558250e-02    1.0234556250e+05
    2.7193021029e-02    1.0234558594e+05
    2.7212476358e-02    1.0234510156e+05
    2.7231922373e-02    1.0234065625e+05
    2.7251357213e-02    1.0234064844e+05
    2.7270786464e-02    1.0234514844e+05
    2.7290204540e-02    1.0234460156e+05
    2.7309613302e-02    1.0233975000e+05
    2.7329014614e-02    1.0233621094e+05
    2.7348404750e-02    1.0234243750e+05
    2.7367785573e-02    1.0234183594e+05
    2.7387158945e-02    1.0233886719e+05
    2.7406521142e-02    1.0233860156e+05
    2.7425874025e-02    1.0233571094e+05
    2.7445219457e-02    1.0233964844e+05
    2.7464553714e-02    1.0233707031e+05
    2.7483878657e-02    1.0233424219e+05
    2.7503194287e-02    1.0233616406e+05
    2.7522502467e-02    1.0233771875e+05
    2.7541799471e-02    1.0233646094e+05
    2.7561087161e-02    1.0233255469e+05
    2.7580365539e-02    1.0232885156e+05
    2.7599634603e-02    1.0232516406e+05
    2.7618894354e-02    1.0233064844e+05
    2.7638144791e-02    1.0232702344e+05
    2.7657385916e-02    1.0232072656e+05
    2.7676619589e-02    1.0232139844e+05
    2.7695843950e-02    1.0231711719e+05
    2.7715058997e-02    1.0231560156e+05
    2.7734262869e-02    1.0231357031e+05
    2.7753459290e-02    1.0230894531e+05
    2.7772648260e-02    1.0230709375e+05
    2.7791827917e-02    1.0230972656e+05
    2.7810998261e-02    1.0230816406e+05
    2.7830159292e-02    1.0230185156e+05
    2.7849311009e-02    1.0229981250e+05
    2.7868455276e-02    1.0229828125e+05
    2.7887590230e-02    1.0229647656e+05
    2.7906717733e-02    1.0229769531e+05
    2.7925835922e-02    1.0230382031e+05
    2.7944946662e-02    1.0229858594e+05
    2.7964048088e-02    1.0229675000e+05
    2.7983140200e-02    1.0229684375e+05
    2.8002224863e-02    1.0230432031e+05
    2.8021300212e-02    1.0230497656e+05
    2.8040368110e-02    1.0230640625e+05
    2.8059426695e-02    1.0230886719e+05
    2.8078475967e-02    1.0231653906e+05
    2.8097519651e-02    1.0232064844e+05
    2.8116554022e-02    1.0232925000e+05
    2.8135580942e-02    1.0233661719e+05
    2.8154598549e-02    1.0234833594e+05
    2.8173606843e-02    1.0235346094e+05
    2.8192607686e-02    1.0235902344e+05
    2.8211599216e-02    1.0236758594e+05
    2.8230583295e-02    1.0237614844e+05
    2.8249559924e-02    1.0237997656e+05
    2.8268527240e-02    1.0239091406e+05
    2.8287487105e-02    1.0239889844e+05
    2.8306435794e-02    1.0240483594e+05
    2.8325378895e-02    1.0241033594e+05
    2.8344312683e-02    1.0241650781e+05
    2.8363237157e-02    1.0242185156e+05
    2.8382156044e-02    1.0242946094e+05
    2.8401065618e-02    1.0243455469e+05
    2.8419965878e-02    1.0243681250e+05
    2.8438858688e-02    1.0244116406e+05
    2.8457742184e-02    1.0244572656e+05
    2.8476616368e-02    1.0245021094e+05
    2.8495483100e-02    1.0245427344e+05
    2.8514338657e-02    1.0245772656e+05
    2.8533160686e-02    1.0245502344e+05
    2.8551930562e-02    1.0245477344e+05
    2.8570635244e-02    1.0245161719e+05
    2.8589271009e-02    1.0245116406e+05
    2.8607837856e-02    1.0245194531e+05
    2.8626350686e-02    1.0245339844e+05
    2.8644818813e-02    1.0245399219e+05
    2.8663259000e-02    1.0245021094e+05
    2.8681686148e-02    1.0245078906e+05
    2.8700113297e-02    1.0245085156e+05
    2.8718546033e-02    1.0245039844e+05
    2.8736986220e-02    1.0244453906e+05
    2.8755431995e-02    1.0243862500e+05
    2.8773877770e-02    1.0243233594e+05
    2.8792314231e-02    1.0243088281e+05
    2.8810730204e-02    1.0243388281e+05
    2.8829116374e-02    1.0243238281e+05
    2.8847465292e-02    1.0242544531e+05
    2.8865773231e-02    1.0242291406e+05
    2.8884036466e-02    1.0241580469e+05
    2.8902258724e-02    1.0241322656e+05
    2.8920443729e-02    1.0241059375e+05
    2.8938598931e-02    1.0240892969e+05
    2.8956729919e-02    1.0240753906e+05
    2.8974846005e-02    1.0240638281e+05
    2.8992949054e-02    1.0240535156e+05
    2.9011042789e-02    1.0240435156e+05
    2.9029129073e-02    1.0240303125e+05
    2.9047204182e-02    1.0240122656e+05
    2.9065268114e-02    1.0239914844e+05
    2.9083315283e-02    1.0239691406e+05
    2.9101338238e-02    1.0239488281e+05
    2.9119335115e-02    1.0239303125e+05
    2.9137304053e-02    1.0238194531e+05
    2.9155241325e-02    1.0238469531e+05
    2.9173148796e-02    1.0238758594e+05
    2.9191024601e-02    1.0238600781e+05
    2.9208874330e-02    1.0238474219e+05
    2.9226697981e-02    1.0238352344e+05
    2.9244501144e-02    1.0238144531e+05
    2.9262285680e-02    1.0237991406e+05
    2.9280053452e-02    1.0237852344e+05
    2.9297806323e-02    1.0237666406e+05
    2.9315544292e-02    1.0237521875e+05
    2.9333265498e-02    1.0237435156e+05
    2.9350971803e-02    1.0237602344e+05
    2.9368655756e-02    1.0237766406e+05
    2.9386319220e-02    1.0238228906e+05
    2.9403960332e-02    1.0238250781e+05
    2.9421577230e-02    1.0237996094e+05
    2.9439168051e-02    1.0237741406e+05
    2.9456734657e-02    1.0238203906e+05
    2.9474277049e-02    1.0238260156e+05
    2.9491795227e-02    1.0238269531e+05
    2.9509292915e-02    1.0238347656e+05
    2.9526771978e-02    1.0238422656e+05
    2.9544232413e-02    1.0238965625e+05
    2.9561674222e-02    1.0239535156e+05
    2.9579099268e-02    1.0239621094e+05
    2.9596509412e-02    1.0239666406e+05
    2.9613900930e-02    1.0239561719e+05
    2.9631273821e-02    1.0239218750e+05
    2.9648626223e-02    1.0239109375e+05
    2.9665958136e-02    1.0239265625e+05
    2.9683271423e-02    1.0239424219e+05
    2.9700560495e-02    1.0240506250e+05
    2.9717829078e-02    1.0240721094e+05
    2.9735075310e-02    1.0240877344e+05
    2.9752301052e-02    1.0241002344e+05
    2.9769508168e-02    1.0240578906e+05
    2.9786696658e-02    1.0240125781e+05
    2.9803866521e-02    1.0239566406e+05
    2.9821017757e-02    1.0239068750e+05
    2.9838152230e-02    1.0238963281e+05
    2.9855269939e-02    1.0238614844e+05
    2.9872370884e-02    1.0237753906e+05
    2.9889453202e-02    1.0237558594e+05
    2.9906518757e-02    1.0237334375e+05
    2.9923565686e-02    1.0236628906e+05
    2.9940593988e-02    1.0235428906e+05
    2.9957601801e-02    1.0235069531e+05
    2.9974590987e-02    1.0234274219e+05
    2.9991561547e-02    1.0232964844e+05
    3.0008511618e-02    1.0232485156e+05
    3.0025444925e-02    1.0232031250e+05
    3.0042361468e-02    1.0231066406e+05
    3.0059259385e-02    1.0230044531e+05
    3.0076142401e-02    1.0229430469e+05
    3.0093006790e-02    1.0228400781e+05
    3.0109854415e-02    1.0227314844e+05
    3.0126683414e-02    1.0226764844e+05
    3.0143497512e-02    1.0226719531e+05
    3.0160292983e-02    1.0226761719e+05
    3.0177071691e-02    1.0226310156e+05
    3.0193833634e-02    1.0225930469e+05
    3.0210576952e-02    1.0226522656e+05
    3.0227303505e-02    1.0226234375e+05
    3.0244011432e-02    1.0226853125e+05
    3.0260702595e-02    1.0227614844e+05
    3.0277376994e-02    1.0228502344e+05
    3.0294034630e-02    1.0228521094e+05
    3.0310675502e-02    1.0229574219e+05
    3.0327299610e-02    1.0230713281e+05
    3.0343905091e-02    1.0231485156e+05
    3.0360495672e-02    1.0232281250e+05
    3.0377071351e-02    1.0233340625e+05
    3.0393628404e-02    1.0234035156e+05
    3.0410168692e-02    1.0234505469e+05
    3.0426690355e-02    1.0235965625e+05
    3.0443195254e-02    1.0236483594e+05
    3.0459685251e-02    1.0237521875e+05
    3.0476156622e-02    1.0238671875e+05
    3.0492611229e-02    1.0239347656e+05
    3.0509050936e-02    1.0240032031e+05
    3.0525473878e-02    1.0240710156e+05
    3.0541881919e-02    1.0241391406e+05
    3.0558273196e-02    1.0242064844e+05
    3.0574647710e-02    1.0242267969e+05
    3.0591005459e-02    1.0242494531e+05
    3.0607348308e-02    1.0243403906e+05
    3.0623674393e-02    1.0243846094e+05
    3.0639985576e-02    1.0244553906e+05
    3.0656279996e-02    1.0245221094e+05
    3.0672557652e-02    1.0245891406e+05
    3.0688818544e-02    1.0245803906e+05
    3.0705062672e-02    1.0246155469e+05
    3.0721291900e-02    1.0246716406e+05
    3.0737506226e-02    1.0247233594e+05
    3.0753703788e-02    1.0247266406e+05
    3.0769886449e-02    1.0247341406e+05
    3.0786054209e-02    1.0247821875e+05
    3.0802207068e-02    1.0248567969e+05
    3.0818343163e-02    1.0248864844e+05
    3.0834466219e-02    1.0249342969e+05
    3.0850572512e-02    1.0249771094e+05
    3.0866663903e-02    1.0250133594e+05
    3.0882738531e-02    1.0249952344e+05
    3.0898798257e-02    1.0249737500e+05
    3.0914843082e-02    1.0249891406e+05
    3.0930871144e-02    1.0249562500e+05
    3.0946886167e-02    1.0249244531e+05
    3.0962884426e-02    1.0249289844e+05
    3.0978867784e-02    1.0249309375e+05
    3.0994836241e-02    1.0248828125e+05
    3.1010789797e-02    1.0248752344e+05
    3.1026728451e-02    1.0248205469e+05
    3.1042650342e-02    1.0247527344e+05
    3.1058559194e-02    1.0247264844e+05
    3.1074455008e-02    1.0246496094e+05
    3.1090334058e-02    1.0245627344e+05
    3.1106200069e-02    1.0245130469e+05
    3.1122051179e-02    1.0244653906e+05
    3.1137887388e-02    1.0243661719e+05
    3.1153710559e-02    1.0242808594e+05
    3.1169516966e-02    1.0241961719e+05
    3.1185310334e-02    1.0241243750e+05
    3.1201090664e-02    1.0239627344e+05
    3.1216854230e-02    1.0238812500e+05
    3.1232602894e-02    1.0237224219e+05
    3.1248336658e-02    1.0236100781e+05
    3.1264055520e-02    1.0235231250e+05
    3.1279761344e-02    1.0234316406e+05
    3.1295452267e-02    1.0233390625e+05
    3.1311132014e-02    1.0232503906e+05
    3.1326796860e-02    1.0231635156e+05
    3.1342446804e-02    1.0230333594e+05
    3.1358085573e-02    1.0229931250e+05
    3.1373709440e-02    1.0229127344e+05
    3.1389318407e-02    1.0228852344e+05
    3.1404916197e-02    1.0228141406e+05
    3.1420499086e-02    1.0227608594e+05
    3.1436067075e-02    1.0227296094e+05
    3.1451620162e-02    1.0227541406e+05
    3.1467158347e-02    1.0227168750e+05
    3.1482685357e-02    1.0227394531e+05
    3.1498193741e-02    1.0227783594e+05
    3.1513694674e-02    1.0228691406e+05
    3.1529176980e-02    1.0229318750e+05
    3.1544648111e-02    1.0230535156e+05
    3.1560108066e-02    1.0231421875e+05
    3.1575553119e-02    1.0232387500e+05
    3.1590986997e-02    1.0232971094e+05
    3.1606405973e-02    1.0234517969e+05
    3.1621813774e-02    1.0235215625e+05
    3.1637206674e-02    1.0236344531e+05
    3.1652588397e-02    1.0237606250e+05
    3.1667951494e-02    1.0238328906e+05
    3.1683307141e-02    1.0239637500e+05
    3.1698647887e-02    1.0240441406e+05
    3.1713977456e-02    1.0241728906e+05
    3.1729292125e-02    1.0242518750e+05
    3.1744595617e-02    1.0243358594e+05
    3.1759884208e-02    1.0244192969e+05
    3.1775161624e-02    1.0245228125e+05
    3.1790427864e-02    1.0245999219e+05
    3.1805675477e-02    1.0246986719e+05
    3.1820915639e-02    1.0247714844e+05
    3.1836140901e-02    1.0248446094e+05
    3.1851354986e-02    1.0249140625e+05
    3.1866557896e-02    1.0249799219e+05
    3.1881745905e-02    1.0250866406e+05
    3.1896922737e-02    1.0250947656e+05
    3.1912088394e-02    1.0251491406e+05
    3.1927239150e-02    1.0251516406e+05
    3.1942378730e-02    1.0251691406e+05
    3.1957507133e-02    1.0251338281e+05
    3.1972620636e-02    1.0251614844e+05
    3.1987726688e-02    1.0251385156e+05
    3.2002814114e-02    1.0251089844e+05
    3.2017890364e-02    1.0251182031e+05
    3.2032959163e-02    1.0251258594e+05
    3.2048013061e-02    1.0250839844e+05
    3.2063052058e-02    1.0250358594e+05
    3.2078083605e-02    1.0250337500e+05
    3.2093103975e-02    1.0250285156e+05
    3.2108109444e-02    1.0250018750e+05
    3.2123107463e-02    1.0249722656e+05
    3.2138090581e-02    1.0249675000e+05
    3.2153062522e-02    1.0249650781e+05
    3.2168023288e-02    1.0249647656e+05
    3.2182972878e-02    1.0249646875e+05
    3.2197911292e-02    1.0249639844e+05
    3.2212834805e-02    1.0249650781e+05
    3.2227750868e-02    1.0249660156e+05
    3.2242652029e-02    1.0249658594e+05
    3.2257542014e-02    1.0249687500e+05
    3.2272424549e-02    1.0249710156e+05
    3.2287292182e-02    1.0249728125e+05
    3.2302148640e-02    1.0249792969e+05
    3.2316997647e-02    1.0249559375e+05
    3.2331831753e-02    1.0248925781e+05
    3.2346658409e-02    1.0248955469e+05
    3.2361470163e-02    1.0249474219e+05
    3.2376270741e-02    1.0249767969e+05
    3.2391063869e-02    1.0250050781e+05
    3.2405842096e-02    1.0250200781e+05
    3.2420612872e-02    1.0250277344e+05
    3.2435368747e-02    1.0250388281e+05
    3.2450113446e-02    1.0250503906e+05
    3.2464850694e-02    1.0250627344e+05
    3.2479573041e-02    1.0250696875e+05
    3.2494287938e-02    1.0250828906e+05
    3.2508991659e-02    1.0250913281e+05
    3.2523684204e-02    1.0250966406e+05
    3.2538365573e-02    1.0251025781e+05
    3.2553035766e-02    1.0251139844e+05
    3.2567698509e-02    1.0251162500e+05
    3.2582346350e-02    1.0251230469e+05
    3.2596986741e-02    1.0251250781e+05
    3.2611619681e-02    1.0250785156e+05
    3.2626237720e-02    1.0250771875e+05
    3.2640848309e-02    1.0250288281e+05
    3.2655447721e-02    1.0250278906e+05
    3.2670035958e-02    1.0250234375e+05
    3.2684613019e-02    1.0250183594e+05
    3.2699178904e-02    1.0250162500e+05
    3.2713737339e-02    1.0250141406e+05
    3.2728284597e-02    1.0250118750e+05
    3.2742820680e-02    1.0250063281e+05
    3.2757349312e-02    1.0250018750e+05
    3.2771866769e-02    1.0249996094e+05
    3.2786373049e-02    1.0249900781e+05
    3.2800871879e-02    1.0249291406e+05
    3.2815355808e-02    1.0249138281e+05
    3.2829832286e-02    1.0248574219e+05
    3.2844301313e-02    1.0248407031e+05
    3.2858755440e-02    1.0248964844e+05
    3.2873202115e-02    1.0249047656e+05
    3.2887637615e-02    1.0248503906e+05
    3.2902065665e-02    1.0247941406e+05
    3.2916482538e-02    1.0248339844e+05
    3.2930891961e-02    1.0248800781e+05
    3.2945290208e-02    1.0248756250e+05
    3.2959677279e-02    1.0248781250e+05
    3.2974056900e-02    1.0248840625e+05
    3.2988425344e-02    1.0248596094e+05
    3.3002786338e-02    1.0248860156e+05
    3.3017136157e-02    1.0248847656e+05
    3.3031478524e-02    1.0248836719e+05
    3.3045809716e-02    1.0248803125e+05
    3.3060129732e-02    1.0248728906e+05
    3.3074442297e-02    1.0248758594e+05
    3.3088747412e-02    1.0248808594e+05
    3.3103041351e-02    1.0249336719e+05
    3.3117324114e-02    1.0249396094e+05
    3.3131599426e-02    1.0249493750e+05
    3.3145863563e-02    1.0249740625e+05
    3.3160120249e-02    1.0249603906e+05
    3.3174365759e-02    1.0249134375e+05
    3.3188603818e-02    1.0249203906e+05
    3.3202830702e-02    1.0249241406e+05
    3.3217050135e-02    1.0249311719e+05
    3.3231258392e-02    1.0249335156e+05
    3.3245459199e-02    1.0249836719e+05
    3.3259648830e-02    1.0249396875e+05
    3.3273831010e-02    1.0249394531e+05
    3.3288005739e-02    1.0249350000e+05
    3.3302169293e-02    1.0249355469e+05
    3.3316325396e-02    1.0249287500e+05
    3.3330474049e-02    1.0249271094e+05
    3.3344611526e-02    1.0249182031e+05
    3.3358741552e-02    1.0249143750e+05
    3.3372864127e-02    1.0249075781e+05
    3.3386975527e-02    1.0249038281e+05
    3.3401079476e-02    1.0248969531e+05
    3.3415172249e-02    1.0248927344e+05
    3.3429257572e-02    1.0248862500e+05
    3.3443335444e-02    1.0248806250e+05
    3.3457405865e-02    1.0248786719e+05
    3.3471468836e-02    1.0248741406e+05
    3.3485524356e-02    1.0248760156e+05
    3.3499568701e-02    1.0248752344e+05
    3.3513605595e-02    1.0248790625e+05
    3.3527631313e-02    1.0249064844e+05
    3.3541653305e-02    1.0248918750e+05
    3.3555664122e-02    1.0249157031e+05
    3.3569667488e-02    1.0249463281e+05
    3.3583663404e-02    1.0249244531e+05
    3.3597648144e-02    1.0249278906e+05
    3.3611625433e-02    1.0249277344e+05
    3.3625595272e-02    1.0249267969e+05
    3.3639557660e-02    1.0249283594e+05
    3.3653512597e-02    1.0249283594e+05
    3.3667460084e-02    1.0249097656e+05
    3.3681396395e-02    1.0249561719e+05
    3.3695328981e-02    1.0249155469e+05
    3.3709254116e-02    1.0249177344e+05
    3.3723168075e-02    1.0249203906e+05
    3.3737078309e-02    1.0249686719e+05
    3.3750977367e-02    1.0249717969e+05
    3.3764872700e-02    1.0249263281e+05
    3.3778760582e-02    1.0249282031e+05
    3.3792637289e-02    1.0249297656e+05
    3.3806510270e-02    1.0249347656e+05
    3.3820372075e-02    1.0249596094e+05
    3.3834230155e-02    1.0249585156e+05
    3.3848077059e-02    1.0249437500e+05
    3.3861916512e-02    1.0249422656e+05
    3.3875752240e-02    1.0249461719e+05
    3.3889576793e-02    1.0249419531e+05
    3.3903393894e-02    1.0249460156e+05
    3.3917203546e-02    1.0249466406e+05
    3.3931009471e-02    1.0249471094e+05
    3.3944804221e-02    1.0249471094e+05
    3.3958595246e-02    1.0249441406e+05
    3.3972378820e-02    1.0249403906e+05
    3.3986151218e-02    1.0249392969e+05
    3.3999919891e-02    1.0249346094e+05
    3.4013681114e-02    1.0249294531e+05
    3.4027434886e-02    1.0249294531e+05
    3.4041177481e-02    1.0249266406e+05
    3.4054916352e-02    1.0249240625e+05
    3.4068647772e-02    1.0249210156e+05
    3.4082375467e-02    1.0249178906e+05
    3.4096091986e-02    1.0249118750e+05
    3.4109804779e-02    1.0249089844e+05
    3.4123510122e-02    1.0249006250e+05
    3.4137208015e-02    1.0248980469e+05
    3.4150898457e-02    1.0248925781e+05
    3.4164581448e-02    1.0248902344e+05
    3.4178260714e-02    1.0248877344e+05
    3.4191932529e-02    1.0248846875e+05
    3.4205596894e-02    1.0248849219e+05
    3.4219253808e-02    1.0248816406e+05
    3.4232903272e-02    1.0248783594e+05
    3.4246545285e-02    1.0248768750e+05
    3.4260183573e-02    1.0248694531e+05
    3.4273810685e-02    1.0248667969e+05
    3.4287434071e-02    1.0248582031e+05
    3.4301050007e-02    1.0248513281e+05
    3.4314658493e-02    1.0248444531e+05
    3.4328263253e-02    1.0248403906e+05
    3.4341860563e-02    1.0248310156e+05
    3.4355450422e-02    1.0248221875e+05
    3.4369036555e-02    1.0248163281e+05
    3.4382611513e-02    1.0248116406e+05
    3.4396182746e-02    1.0248071875e+05
    3.4409742802e-02    1.0248039844e+05
    3.4423299134e-02    1.0248480469e+05
    3.4436848015e-02    1.0248465625e+05
    3.4450393170e-02    1.0248194531e+05
    3.4463927150e-02    1.0247907031e+05
    3.4477461129e-02    1.0247944531e+05
    3.4490987659e-02    1.0247864844e+05
    3.4504506737e-02    1.0247902344e+05
    3.4518022090e-02    1.0247878906e+05
    3.4531529993e-02    1.0247877344e+05
    3.4545030445e-02    1.0247810156e+05
    3.4558523446e-02    1.0247764844e+05
    3.4572008997e-02    1.0247714844e+05
    3.4585487098e-02    1.0247657031e+05
    3.4598957747e-02    1.0247622656e+05
    3.4612424672e-02    1.0247522656e+05
    3.4625884145e-02    1.0247446094e+05
    3.4639336169e-02    1.0247328906e+05
    3.4652780741e-02    1.0247178125e+05
    3.4666225314e-02    1.0247086719e+05
    3.4679658711e-02    1.0246964844e+05
    3.4693088382e-02    1.0246844531e+05
    3.4706510603e-02    1.0246696094e+05
    3.4719929099e-02    1.0246614844e+05
    3.4733340144e-02    1.0246510156e+05
    3.4746743739e-02    1.0246472656e+05
    3.4760143608e-02    1.0246443750e+05
    3.4773536026e-02    1.0246416406e+05
    3.4786924720e-02    1.0246366406e+05
    3.4800305963e-02    1.0246314844e+05
    3.4813679755e-02    1.0246287500e+05
    3.4827046096e-02    1.0246233594e+05
    3.4840408713e-02    1.0246206250e+05
    3.4853763878e-02    1.0246183594e+05
    3.4867111593e-02    1.0246128906e+05
    3.4880455583e-02    1.0246105469e+05
    3.4893795848e-02    1.0246081250e+05
    3.4907124937e-02    1.0245990625e+05
    3.4920454025e-02    1.0245892969e+05
    3.4933775663e-02    1.0245753906e+05
    3.4947093576e-02    1.0245636719e+05
    3.4960404038e-02    1.0245488281e+05
    3.4973710775e-02    1.0245390625e+05
    3.4987010062e-02    1.0245296094e+05
endcurve
