Curveplot
LS-DYNA keyword deck by LS-PrePost                          
Time
Pressure
Defined Connection
Pressure @ 31 #pts=1745
* Minval=     9.9543101562e+04 at time=         0.0131522017
* Maxval=     1.7216115625e+05 at time=         0.0062688282
    0.0000000000e+00    9.9998125000e+04
    3.3812357287e-05    9.9998125000e+04
    6.1326652940e-05    9.9998335938e+04
    8.9102875791e-05    9.9997843750e+04
    1.1682785407e-04    9.9999148438e+04
    1.4461828687e-04    9.9998835938e+04
    1.7236733402e-04    9.9999343750e+04
    2.0016246708e-04    1.0000908594e+05
    2.2795486439e-04    9.9999929688e+04
    2.5574557367e-04    1.0000046875e+05
    2.8353667585e-04    1.0000018750e+05
    3.1133697485e-04    9.9990750000e+04
    3.3912662184e-04    1.0000030469e+05
    3.6691734567e-04    1.0000000000e+05
    3.9470891352e-04    9.9999882812e+04
    4.2249175021e-04    1.0001010156e+05
    4.5027161832e-04    1.0000137500e+05
    4.7804549104e-04    1.0000121094e+05
    5.0581363030e-04    9.9991656250e+04
    5.3357944125e-04    1.0000050000e+05
    5.6134146871e-04    1.0000046094e+05
    5.8909942163e-04    1.0000022656e+05
    6.1685312539e-04    1.0000021875e+05
    6.4460188150e-04    1.0000027344e+05
    6.7234638846e-04    9.9999750000e+04
    7.0008635521e-04    9.9999679688e+04
    7.2782178177e-04    1.0000091406e+05
    7.5555208605e-04    1.0000185156e+05
    7.8327720985e-04    1.0000212500e+05
    8.1099680392e-04    1.0000128906e+05
    8.3871174138e-04    9.9995218750e+04
    8.6642213864e-04    1.0000200781e+05
    8.9412782108e-04    1.0000166406e+05
    9.2182843946e-04    1.0000191406e+05
    9.4952445943e-04    1.0000246875e+05
    9.7721535712e-04    1.0000214844e+05
    1.0049008997e-03    9.9992062500e+04
    1.0325826006e-03    9.9995648438e+04
    1.0602590628e-03    1.0000034375e+05
    1.0879321489e-03    1.0001061719e+05
    1.1155996472e-03    1.0000694531e+05
    1.1432634201e-03    9.9998398438e+04
    1.1709230021e-03    9.9993242188e+04
    1.1985785095e-03    9.9992312500e+04
    1.2262313394e-03    1.0000066406e+05
    1.2538790470e-03    1.0001064844e+05
    1.2815232622e-03    1.0000128125e+05
    1.3091630535e-03    9.9997664062e+04
    1.3368004002e-03    9.9994507812e+04
    1.3644339051e-03    1.0000853906e+05
    1.3920635683e-03    1.0002606250e+05
    1.4196902048e-03    1.0005796875e+05
    1.4473132323e-03    1.0010639844e+05
    1.4749332331e-03    1.0019292969e+05
    1.5025498578e-03    1.0032577344e+05
    1.5301633393e-03    1.0052107031e+05
    1.5577742597e-03    1.0077257031e+05
    1.5853822697e-03    1.0109322656e+05
    1.6129877185e-03    1.0146246094e+05
    1.6405890929e-03    1.0186599219e+05
    1.6681876732e-03    1.0225738281e+05
    1.6957829939e-03    1.0260031250e+05
    1.7233766848e-03    1.0287312500e+05
    1.7509678146e-03    1.0305146094e+05
    1.7785291420e-03    1.0313221094e+05
    1.8060547300e-03    1.0312899219e+05
    1.8335470231e-03    1.0305233594e+05
    1.8610082334e-03    1.0292106250e+05
    1.8884401070e-03    1.0275321094e+05
    1.9158447394e-03    1.0257950781e+05
    1.9432241097e-03    1.0241753125e+05
    1.9705800805e-03    1.0229888281e+05
    1.9979148638e-03    1.0222328125e+05
    2.0252298564e-03    1.0219536719e+05
    2.0525271539e-03    1.0221325000e+05
    2.0798076876e-03    1.0226824219e+05
    2.1070730872e-03    1.0234243750e+05
    2.1343247499e-03    1.0242047656e+05
    2.1615643054e-03    1.0248128906e+05
    2.1887931507e-03    1.0252442969e+05
    2.2160108201e-03    1.0254016406e+05
    2.2432196420e-03    1.0253756250e+05
    2.2704207804e-03    1.0251658594e+05
    2.2976147011e-03    1.0248394531e+05
    2.3248014040e-03    1.0244947656e+05
    2.3519827519e-03    1.0241877344e+05
    2.3791582789e-03    1.0239091406e+05
    2.4063293822e-03    1.0238018750e+05
    2.4334960617e-03    1.0238738281e+05
    2.4606597144e-03    1.0239915625e+05
    2.4878205732e-03    1.0241328906e+05
    2.5149781723e-03    1.0242784375e+05
    2.5421329774e-03    1.0243581250e+05
    2.5692859199e-03    1.0244189844e+05
    2.5964374654e-03    1.0244428906e+05
    2.6235871483e-03    1.0244518750e+05
    2.6507352013e-03    1.0243589844e+05
    2.6778825559e-03    1.0243384375e+05
    2.7050296776e-03    1.0242228906e+05
    2.7321761008e-03    1.0241797656e+05
    2.7593218256e-03    1.0241761719e+05
    2.7864677832e-03    1.0242024219e+05
    2.8136142064e-03    1.0242232031e+05
    2.8407603968e-03    1.0243472656e+05
    2.8679079842e-03    1.0244821094e+05
    2.8950548731e-03    1.0246238281e+05
    2.9222022276e-03    1.0248622656e+05
    2.9493502807e-03    1.0252009375e+05
    2.9764990322e-03    1.0257105469e+05
    3.0036487151e-03    1.0263477344e+05
    3.0307997949e-03    1.0272000781e+05
    3.0579508748e-03    1.0280897656e+05
    3.0851035845e-03    1.0292039844e+05
    3.1122572254e-03    1.0302427344e+05
    3.1394117977e-03    1.0312255469e+05
    3.1665677670e-03    1.0320410156e+05
    3.1937246677e-03    1.0326805469e+05
    3.2208829653e-03    1.0330194531e+05
    3.2480424270e-03    1.0330942969e+05
    3.2752046827e-03    1.0328731250e+05
    3.2952371985e-03    1.0325527344e+05
    3.3145032357e-03    1.0321862500e+05
    3.3336398192e-03    1.0317964844e+05
    3.3528339118e-03    1.0314684375e+05
    3.3720366191e-03    1.0310341406e+05
    3.3912549261e-03    1.0306358594e+05
    3.4104890656e-03    1.0301924219e+05
    3.4297339153e-03    1.0297960156e+05
    3.4486323129e-03    1.0293071094e+05
    3.4671388566e-03    1.0287764844e+05
    3.4854323603e-03    1.0282066406e+05
    3.5036695190e-03    1.0276916406e+05
    3.5219141282e-03    1.0270432031e+05
    3.5401545465e-03    1.0263606250e+05
    3.5583588760e-03    1.0256610156e+05
    3.5765271168e-03    1.0249763281e+05
    3.5946895368e-03    1.0243369531e+05
    3.6139658187e-03    1.0237774219e+05
    3.6330535077e-03    1.0232386719e+05
    3.6521453876e-03    1.0228389844e+05
    3.6699753255e-03    1.0225028906e+05
    3.6875614896e-03    1.0222550000e+05
    3.7050142419e-03    1.0220614844e+05
    3.7224807311e-03    1.0219316406e+05
    3.7400643341e-03    1.0218083594e+05
    3.7577797193e-03    1.0216835156e+05
    3.7755726371e-03    1.0216006250e+05
    3.7933769636e-03    1.0214693750e+05
    3.8111612666e-03    1.0214003125e+05
    3.8289318327e-03    1.0212978906e+05
    3.8467168342e-03    1.0212553125e+05
    3.8645383902e-03    1.0211572656e+05
    3.8824023213e-03    1.0210928125e+05
    3.9002960548e-03    1.0209903906e+05
    3.9182156324e-03    1.0209147656e+05
    3.9361710660e-03    1.0207481250e+05
    3.9541716687e-03    1.0205792969e+05
    3.9733103476e-03    1.0203213281e+05
    3.9924201556e-03    1.0201416406e+05
    4.0104058571e-03    1.0199908594e+05
    4.0284004062e-03    1.0198918750e+05
    4.0464363992e-03    1.0198294531e+05
    4.0656095371e-03    1.0197531250e+05
    4.0847789496e-03    1.0196653906e+05
    4.1039343923e-03    1.0196359375e+05
    4.1219722480e-03    1.0195857031e+05
    4.1400394402e-03    1.0194941406e+05
    4.1591953486e-03    1.0194036719e+05
    4.1784178466e-03    1.0192935156e+05
    4.1976389475e-03    1.0192272656e+05
    4.2168586515e-03    1.0191208594e+05
    4.2360713705e-03    1.0190553906e+05
    4.2552771047e-03    1.0190031250e+05
    4.2744791135e-03    1.0189381250e+05
    4.2936825193e-03    1.0188707031e+05
    4.3128933758e-03    1.0186824219e+05
    4.3321144767e-03    1.0185246094e+05
    4.3513495475e-03    1.0183808594e+05
    4.3705995195e-03    1.0181766406e+05
    4.3898657896e-03    1.0179722656e+05
    4.4091497548e-03    1.0177447656e+05
    4.4284537435e-03    1.0175077344e+05
    4.4477786869e-03    1.0171608594e+05
    4.4671236537e-03    1.0167650000e+05
    4.4864914380e-03    1.0161969531e+05
    4.5058806427e-03    1.0156543750e+05
    4.5252908021e-03    1.0149472656e+05
    4.5447219163e-03    1.0140705469e+05
    4.5641721226e-03    1.0131792969e+05
    4.5836409554e-03    1.0121206250e+05
    4.6031279489e-03    1.0109982031e+05
    4.6226321720e-03    1.0098628906e+05
    4.6421540901e-03    1.0086027344e+05
    4.6616927721e-03    1.0073644531e+05
    4.6812482178e-03    1.0061952344e+05
    4.7008208930e-03    1.0050418750e+05
    4.7204112634e-03    1.0039522656e+05
    4.7400193289e-03    1.0030291406e+05
    4.7596455552e-03    1.0023316406e+05
    4.7792894766e-03    1.0017983594e+05
    4.7989510931e-03    1.0015614844e+05
    4.8186304048e-03    1.0014635156e+05
    4.8383255489e-03    1.0015649219e+05
    4.8580355942e-03    1.0018571094e+05
    4.8777610064e-03    1.0023268750e+05
    4.8975008540e-03    1.0028403906e+05
    4.9172551371e-03    1.0034277344e+05
    4.9370229244e-03    1.0040986719e+05
    4.9568060786e-03    1.0047402344e+05
    4.9766036682e-03    1.0052885156e+05
    4.9964170903e-03    1.0057450781e+05
    5.0162458792e-03    1.0061264844e+05
    5.0360900350e-03    1.0064736719e+05
    5.0559476949e-03    1.0066652344e+05
    5.0758207217e-03    1.0067868750e+05
    5.0957072526e-03    1.0068396875e+05
    5.1156077534e-03    1.0067589844e+05
    5.1355226897e-03    1.0066647656e+05
    5.1554525271e-03    1.0065419531e+05
    5.1753963344e-03    1.0063078906e+05
    5.1953555085e-03    1.0061308594e+05
    5.2153295837e-03    1.0059856250e+05
    5.2353194915e-03    1.0058478906e+05
    5.2553247660e-03    1.0057724219e+05
    5.2753463387e-03    1.0057396875e+05
    5.2953832783e-03    1.0057277344e+05
    5.3154369816e-03    1.0057621875e+05
    5.3355065174e-03    1.0058074219e+05
    5.3555918857e-03    1.0059378906e+05
    5.3756926209e-03    1.0060166406e+05
    5.3958082572e-03    1.0061484375e+05
    5.4159392603e-03    1.0062632031e+05
    5.4360851645e-03    1.0063765625e+05
    5.4562464356e-03    1.0064797656e+05
    5.4764230736e-03    1.0065368750e+05
    5.4966160096e-03    1.0066352344e+05
    5.5168238468e-03    1.0066858594e+05
    5.5370470509e-03    1.0067193750e+05
    5.5572865531e-03    1.0067394531e+05
    5.5775423534e-03    1.0066718750e+05
    5.5978130549e-03    1.0066852344e+05
    5.6181000546e-03    1.0067053125e+05
    5.6384028867e-03    1.0067272656e+05
    5.6587206200e-03    1.0067461719e+05
    5.6790532544e-03    1.0067685156e+05
    5.6994007900e-03    1.0067910156e+05
    5.7197632268e-03    1.0068242969e+05
    5.7401410304e-03    1.0068662500e+05
    5.7605337352e-03    1.0069028906e+05
    5.7809422724e-03    1.0069460156e+05
    5.8013652451e-03    1.0069903906e+05
    5.8218040504e-03    1.0070272656e+05
    5.8422577567e-03    1.0070643750e+05
    5.8627268299e-03    1.0071603125e+05
    5.8832112700e-03    1.0072535156e+05
    5.9037101455e-03    1.0073167969e+05
    5.9242248535e-03    1.0073799219e+05
    5.9447535314e-03    1.0075262500e+05
    5.9641525149e-03    1.0077875781e+05
    5.9830932878e-03    1.0083516406e+05
    6.0020405799e-03    1.0092811719e+05
    6.0210367665e-03    1.0112150781e+05
    6.0400799848e-03    1.0151547656e+05
    6.0591096990e-03    1.0234793750e+05
    6.0781282373e-03    1.0402927344e+05
    6.0972142965e-03    1.0718685156e+05
    6.1162756756e-03    1.1256021094e+05
    6.1353649944e-03    1.2058312500e+05
    6.1544459313e-03    1.3108817188e+05
    6.1734300107e-03    1.4286006250e+05
    6.1924448237e-03    1.5405395312e+05
    6.2115197070e-03    1.6300645312e+05
    6.2306127511e-03    1.6886434375e+05
    6.2497169711e-03    1.7167028125e+05
    6.2688281760e-03    1.7216115625e+05
    6.2879407778e-03    1.7129101562e+05
    6.3070552424e-03    1.6986331250e+05
    6.3261794858e-03    1.6842570312e+05
    6.3453060575e-03    1.6714995312e+05
    6.3644465990e-03    1.6595318750e+05
    6.3835908659e-03    1.6468276562e+05
    6.4027444459e-03    1.6323892188e+05
    6.4219115302e-03    1.6159118750e+05
    6.4410855994e-03    1.5977031250e+05
    6.4602680504e-03    1.5784915625e+05
    6.4794607460e-03    1.5588815625e+05
    6.4986641519e-03    1.5395262500e+05
    6.5178787336e-03    1.5208290625e+05
    6.5371058881e-03    1.5028548438e+05
    6.5563363023e-03    1.4854509375e+05
    6.5755699761e-03    1.4685284375e+05
    6.5948092379e-03    1.4519600000e+05
    6.6140629351e-03    1.4357479688e+05
    6.6333152354e-03    1.4198793750e+05
    6.6525745206e-03    1.4045960938e+05
    6.6718445159e-03    1.3901270312e+05
    6.6911154427e-03    1.3765492188e+05
    6.7104012705e-03    1.3639395312e+05
    6.7296870984e-03    1.3521865625e+05
    6.7489854991e-03    1.3413004688e+05
    6.7682852969e-03    1.3310946875e+05
    6.7875892855e-03    1.3215826562e+05
    6.8069072440e-03    1.3126382812e+05
    6.8262196146e-03    1.3043646094e+05
    6.8455408327e-03    1.2966728906e+05
    6.8648783490e-03    1.2895303906e+05
    6.8842126057e-03    1.2828209375e+05
    6.9035501219e-03    1.2766019531e+05
    6.9228983484e-03    1.2707740625e+05
    6.9422605447e-03    1.2653249219e+05
    6.9616222754e-03    1.2600281250e+05
    6.9809844717e-03    1.2550972656e+05
    7.0003494620e-03    1.2502858594e+05
    7.0197195746e-03    1.2456267969e+05
    7.0390999317e-03    1.2411810156e+05
    7.0584909990e-03    1.2368692969e+05
    7.0778946392e-03    1.2327431250e+05
    7.0973108523e-03    1.2287940625e+05
    7.1167377755e-03    1.2250097656e+05
    7.1361698210e-03    1.2213338281e+05
    7.1556069888e-03    1.2178371094e+05
    7.1750483476e-03    1.2143252344e+05
    7.1944966912e-03    1.2109542969e+05
    7.2139529511e-03    1.2075666406e+05
    7.2334166616e-03    1.2042239844e+05
    7.2528840974e-03    1.2009121094e+05
    7.2723543271e-03    1.1976800781e+05
    7.2918278165e-03    1.1945897656e+05
    7.3113050312e-03    1.1915928906e+05
    7.3307845742e-03    1.1888117969e+05
    7.3502692394e-03    1.1861507031e+05
    7.3697618209e-03    1.1837160156e+05
    7.3892641813e-03    1.1814065625e+05
    7.4087800458e-03    1.1792647656e+05
    7.4282912537e-03    1.1773002344e+05
    7.4477996677e-03    1.1754703125e+05
    7.4673094787e-03    1.1738099219e+05
    7.4868267402e-03    1.1723525781e+05
    7.5063589029e-03    1.1710357031e+05
    7.5258887373e-03    1.1697821875e+05
    7.5454111211e-03    1.1685905469e+05
    7.5649353676e-03    1.1674082031e+05
    7.5844703242e-03    1.1662686719e+05
    7.6040057465e-03    1.1651564844e+05
    7.6235276647e-03    1.1640213281e+05
    7.6430505142e-03    1.1629033594e+05
    7.6625877991e-03    1.1618192969e+05
    7.6821087860e-03    1.1607727344e+05
    7.7016241848e-03    1.1597924219e+05
    7.7211544849e-03    1.1588672656e+05
    7.7406810597e-03    1.1580185156e+05
    7.7602043748e-03    1.1573032031e+05
    7.7797495760e-03    1.1565718750e+05
    7.7992938459e-03    1.1559003906e+05
    7.8188432381e-03    1.1552169531e+05
    7.8384252265e-03    1.1545072656e+05
    7.8580006957e-03    1.1536975000e+05
    7.8775910661e-03    1.1528549219e+05
    7.8972103074e-03    1.1518678906e+05
    7.9168286175e-03    1.1509056250e+05
    7.9364804551e-03    1.1498244531e+05
    7.9561360180e-03    1.1485966406e+05
    7.9758102074e-03    1.1473534375e+05
    7.9955114052e-03    1.1459917969e+05
    8.0152126029e-03    1.1446141406e+05
    8.0349491909e-03    1.1431585156e+05
    8.0546662211e-03    1.1416560156e+05
    8.0743944272e-03    1.1401918750e+05
    8.0941170454e-03    1.1387350781e+05
    8.1138620153e-03    1.1373250000e+05
    8.1336386502e-03    1.1360160156e+05
    8.1534720957e-03    1.1348408594e+05
    8.1733558327e-03    1.1337080469e+05
    8.1932730973e-03    1.1327357031e+05
    8.2132071257e-03    1.1318658594e+05
    8.2330890000e-03    1.1311322656e+05
    8.2529615611e-03    1.1304560156e+05
    8.2727763802e-03    1.1298933594e+05
    8.2926023751e-03    1.1294406250e+05
    8.3124246448e-03    1.1289438281e+05
    8.3322748542e-03    1.1284509375e+05
    8.3521194756e-03    1.1278702344e+05
    8.3719678223e-03    1.1271972656e+05
    8.3917891607e-03    1.1264955469e+05
    8.4116021171e-03    1.1256766406e+05
    8.4314141423e-03    1.1247882031e+05
    8.4512168542e-03    1.1237732031e+05
    8.4710381925e-03    1.1227061719e+05
    8.4908353165e-03    1.1215556250e+05
    8.5106678307e-03    1.1204209375e+05
    8.5304882377e-03    1.1193358594e+05
    8.5503393784e-03    1.1183494531e+05
    8.5699046031e-03    1.1174441406e+05
    8.5892248899e-03    1.1165809375e+05
    8.6083402857e-03    1.1157766406e+05
    8.6272666231e-03    1.1150280469e+05
    8.6460309103e-03    1.1143858594e+05
    8.6646731943e-03    1.1137127344e+05
    8.6832325906e-03    1.1131236719e+05
    8.7017398328e-03    1.1125500781e+05
    8.7202098221e-03    1.1120177344e+05
    8.7386453524e-03    1.1114937500e+05
    8.7570473552e-03    1.1109459375e+05
    8.7753897533e-03    1.1103466406e+05
    8.7936492637e-03    1.1097938281e+05
    8.8118780404e-03    1.1092362500e+05
    8.8300397620e-03    1.1086721094e+05
    8.8481390849e-03    1.1081059375e+05
    8.8662039489e-03    1.1074910156e+05
    8.8842641562e-03    1.1069161719e+05
    8.9023411274e-03    1.1062533594e+05
    8.9204348624e-03    1.1056383594e+05
    8.9385388419e-03    1.1049903906e+05
    8.9566456154e-03    1.1044335156e+05
    8.9747514576e-03    1.1038849219e+05
    8.9928600937e-03    1.1033357031e+05
    9.0109808370e-03    1.1027769531e+05
    9.0291155502e-03    1.1022105469e+05
    9.0472688898e-03    1.1016891406e+05
    9.0654399246e-03    1.1011549219e+05
    9.0836230665e-03    1.1006359375e+05
    9.1018192470e-03    1.1001857031e+05
    9.1200266033e-03    1.0998044531e+05
    9.1382460669e-03    1.0994025781e+05
    9.1564757749e-03    1.0991052344e+05
    9.1747231781e-03    1.0987592969e+05
    9.1929892078e-03    1.0984178906e+05
    9.2112747952e-03    1.0979939844e+05
    9.2295790091e-03    1.0975718750e+05
    9.2479009181e-03    1.0970572656e+05
    9.2662386596e-03    1.0965312500e+05
    9.2845931649e-03    1.0959714844e+05
    9.3029672280e-03    1.0953558594e+05
    9.3213599175e-03    1.0946796875e+05
    9.3397712335e-03    1.0939465625e+05
    9.3582011759e-03    1.0931771094e+05
    9.3766497448e-03    1.0923591406e+05
    9.3951150775e-03    1.0914206250e+05
    9.4135999680e-03    1.0905002344e+05
    9.4321016222e-03    1.0894850781e+05
    9.4506228343e-03    1.0884550000e+05
    9.4691645354e-03    1.0874447656e+05
    9.4877239317e-03    1.0864310156e+05
    9.5063010231e-03    1.0854200781e+05
    9.5248948783e-03    1.0844097656e+05
    9.5435054973e-03    1.0833887500e+05
    9.5621328801e-03    1.0824266406e+05
    9.5807760954e-03    1.0814466406e+05
    9.5994332805e-03    1.0805638281e+05
    9.6181081608e-03    1.0796560156e+05
    9.6367979422e-03    1.0787592969e+05
    9.6555035561e-03    1.0779558594e+05
    9.6742231399e-03    1.0770581250e+05
    9.6929576248e-03    1.0761453906e+05
    9.7117051482e-03    1.0751678906e+05
    9.7304685041e-03    1.0742209375e+05
    9.7492448986e-03    1.0731535156e+05
    9.7680361941e-03    1.0720443750e+05
    9.7868405282e-03    1.0708974219e+05
    9.8056588322e-03    1.0696566406e+05
    9.8244920373e-03    1.0682641406e+05
    9.8433364183e-03    1.0668175781e+05
    9.8621929064e-03    1.0653075781e+05
    9.8810633644e-03    1.0637002344e+05
    9.8999459296e-03    1.0620391406e+05
    9.9188406020e-03    1.0603793750e+05
    9.9377483130e-03    1.0586343750e+05
    9.9566690624e-03    1.0569530469e+05
    9.9756028503e-03    1.0551924219e+05
    9.9945487455e-03    1.0534290625e+05
    1.0013507679e-02    1.0516442969e+05
    1.0032479651e-02    1.0499127344e+05
    1.0051463731e-02    1.0483283594e+05
    1.0070459917e-02    1.0467650781e+05
    1.0089469142e-02    1.0452628906e+05
    1.0108492337e-02    1.0439184375e+05
    1.0127528571e-02    1.0426606250e+05
    1.0146577843e-02    1.0414821094e+05
    1.0165639222e-02    1.0403831250e+05
    1.0184712708e-02    1.0394382031e+05
    1.0203798302e-02    1.0385772656e+05
    1.0222896002e-02    1.0378441406e+05
    1.0242006741e-02    1.0371421875e+05
    1.0261129588e-02    1.0365556250e+05
    1.0280264542e-02    1.0359494531e+05
    1.0299413465e-02    1.0354600000e+05
    1.0318575427e-02    1.0349609375e+05
    1.0337748565e-02    1.0345150000e+05
    1.0356934741e-02    1.0341467969e+05
    1.0376133956e-02    1.0337249219e+05
    1.0395346209e-02    1.0333828125e+05
    1.0414571501e-02    1.0330153906e+05
    1.0433809832e-02    1.0325689844e+05
    1.0453061201e-02    1.0321871094e+05
    1.0472324677e-02    1.0318163281e+05
    1.0491601191e-02    1.0315391406e+05
    1.0510892607e-02    1.0312972656e+05
    1.0530196130e-02    1.0310547656e+05
    1.0549513623e-02    1.0309075781e+05
    1.0568842292e-02    1.0308635156e+05
    1.0588183999e-02    1.0308394531e+05
    1.0607538745e-02    1.0308464844e+05
    1.0626907460e-02    1.0309240625e+05
    1.0646289214e-02    1.0309872656e+05
    1.0665684007e-02    1.0311266406e+05
    1.0685092770e-02    1.0311982031e+05
    1.0704516433e-02    1.0312411719e+05
    1.0723951273e-02    1.0312042969e+05
    1.0743400082e-02    1.0310853906e+05
    1.0762862861e-02    1.0309193750e+05
    1.0782338679e-02    1.0306558594e+05
    1.0801829398e-02    1.0303335156e+05
    1.0821334086e-02    1.0299460156e+05
    1.0840852745e-02    1.0295500781e+05
    1.0860386305e-02    1.0291439844e+05
    1.0879932903e-02    1.0287966406e+05
    1.0899493471e-02    1.0285602344e+05
    1.0919069871e-02    1.0284477344e+05
    1.0938662104e-02    1.0283561719e+05
    1.0958270170e-02    1.0283071875e+05
    1.0977892205e-02    1.0282592969e+05
    1.0997531936e-02    1.0281449219e+05
    1.1017187499e-02    1.0280491406e+05
    1.1036860757e-02    1.0278105469e+05
    1.1056551710e-02    1.0276018750e+05
    1.1076259427e-02    1.0273253125e+05
    1.1095987633e-02    1.0270357031e+05
    1.1115733534e-02    1.0267296094e+05
    1.1135498993e-02    1.0264086719e+05
    1.1155283079e-02    1.0260744531e+05
    1.1175086722e-02    1.0257992969e+05
    1.1194912717e-02    1.0254730469e+05
    1.1214758269e-02    1.0252158594e+05
    1.1234625243e-02    1.0249596094e+05
    1.1254511774e-02    1.0246056250e+05
    1.1274418794e-02    1.0242408594e+05
    1.1294347234e-02    1.0237691406e+05
    1.1314296164e-02    1.0233793750e+05
    1.1334266514e-02    1.0229858594e+05
    1.1354257353e-02    1.0226400781e+05
    1.1374268681e-02    1.0223410156e+05
    1.1394302361e-02    1.0220017969e+05
    1.1414355598e-02    1.0216583594e+05
    1.1434430256e-02    1.0211584375e+05
    1.1454525404e-02    1.0207258594e+05
    1.1474640109e-02    1.0201883594e+05
    1.1494777165e-02    1.0195424219e+05
    1.1514934711e-02    1.0190602344e+05
    1.1535113677e-02    1.0184671094e+05
    1.1555313133e-02    1.0178528125e+05
    1.1575534008e-02    1.0173114844e+05
    1.1595774442e-02    1.0167656250e+05
    1.1616035365e-02    1.0163353906e+05
    1.1636316776e-02    1.0159615625e+05
    1.1656619608e-02    1.0156210156e+05
    1.1676942930e-02    1.0152890625e+05
    1.1697287671e-02    1.0151253125e+05
    1.1717652902e-02    1.0150853906e+05
    1.1738038622e-02    1.0152850000e+05
    1.1758443899e-02    1.0158241406e+05
    1.1778870597e-02    1.0167424219e+05
    1.1799318716e-02    1.0182025781e+05
    1.1819788255e-02    1.0203368750e+05
    1.1840280145e-02    1.0233125000e+05
    1.1860790662e-02    1.0275458594e+05
    1.1881321669e-02    1.0331133594e+05
    1.1901874095e-02    1.0403603906e+05
    1.1922447011e-02    1.0492677344e+05
    1.1943042278e-02    1.0597241406e+05
    1.1963658035e-02    1.0714103125e+05
    1.1984295212e-02    1.0836133594e+05
    1.2004952878e-02    1.0955612500e+05
    1.2025631964e-02    1.1063664844e+05
    1.2046331540e-02    1.1152153906e+05
    1.2067052536e-02    1.1214196094e+05
    1.2087795883e-02    1.1247433594e+05
    1.2108558789e-02    1.1252153906e+05
    1.2129344046e-02    1.1231125000e+05
    1.2150149792e-02    1.1187503906e+05
    1.2170976959e-02    1.1128250000e+05
    1.2191825546e-02    1.1059494531e+05
    1.2212695554e-02    1.0986002344e+05
    1.2233586982e-02    1.0913227344e+05
    1.2254500762e-02    1.0846068750e+05
    1.2275436893e-02    1.0786997656e+05
    1.2296394445e-02    1.0738822656e+05
    1.2317374349e-02    1.0699117969e+05
    1.2338375673e-02    1.0666902344e+05
    1.2359398417e-02    1.0637389844e+05
    1.2380442582e-02    1.0607094531e+05
    1.2401508167e-02    1.0571682031e+05
    1.2422595173e-02    1.0530791406e+05
    1.2443703599e-02    1.0483750000e+05
    1.2464834377e-02    1.0432565625e+05
    1.2485986575e-02    1.0378403906e+05
    1.2507158332e-02    1.0324477344e+05
    1.2528351508e-02    1.0271622656e+05
    1.2549565174e-02    1.0222914844e+05
    1.2570801191e-02    1.0179175000e+05
    1.2592058629e-02    1.0141882031e+05
    1.2613337487e-02    1.0110608594e+05
    1.2634636834e-02    1.0085066406e+05
    1.2655957602e-02    1.0063656250e+05
    1.2677297927e-02    1.0045317969e+05
    1.2698660605e-02    1.0029075781e+05
    1.2720043771e-02    1.0013578125e+05
    1.2741449289e-02    9.9994187500e+04
    1.2762876227e-02    9.9866242188e+04
    1.2784325518e-02    9.9757195312e+04
    1.2805794366e-02    9.9670101562e+04
    1.2827285565e-02    9.9607617188e+04
    1.2848797254e-02    9.9569039062e+04
    1.2870330364e-02    9.9554093750e+04
    1.2891885825e-02    9.9563039062e+04
    1.2913462706e-02    9.9588945312e+04
    1.2935061008e-02    9.9628335938e+04
    1.2956679799e-02    9.9669812500e+04
    1.2978320010e-02    9.9707429688e+04
    1.2999981642e-02    9.9729929688e+04
    1.3021663763e-02    9.9733414062e+04
    1.3043368235e-02    9.9718937500e+04
    1.3065092266e-02    9.9689117188e+04
    1.3086837716e-02    9.9639945312e+04
    1.3108605519e-02    9.9596195312e+04
    1.3130392879e-02    9.9560007812e+04
    1.3152201660e-02    9.9543101562e+04
    1.3174032792e-02    9.9556179688e+04
    1.3195885345e-02    9.9603101562e+04
    1.3217759319e-02    9.9677898438e+04
    1.3239653781e-02    9.9767281250e+04
    1.3261569664e-02    9.9862468750e+04
    1.3283506967e-02    9.9955343750e+04
    1.3305463828e-02    1.0003906250e+05
    1.3327440247e-02    1.0010182031e+05
    1.3349435292e-02    1.0014592969e+05
    1.3371448033e-02    1.0016503906e+05
    1.3393475674e-02    1.0017262500e+05
    1.3415516354e-02    1.0016692969e+05
    1.3437564485e-02    1.0015939844e+05
    1.3459613547e-02    1.0016389844e+05
    1.3481658883e-02    1.0016952344e+05
    1.3503690250e-02    1.0018615625e+05
    1.3525702059e-02    1.0020558594e+05
    1.3547683135e-02    1.0024128906e+05
    1.3569628820e-02    1.0027228125e+05
    1.3591531664e-02    1.0030338281e+05
    1.3613392599e-02    1.0032861719e+05
    1.3635210693e-02    1.0034691406e+05
    1.3656994328e-02    1.0035955469e+05
    1.3678749092e-02    1.0037089844e+05
    1.3700488023e-02    1.0037153125e+05
    1.3722228818e-02    1.0037315625e+05
    1.3743981719e-02    1.0036242969e+05
    1.3765762560e-02    1.0035560156e+05
    1.3787578791e-02    1.0033939844e+05
    1.3809437864e-02    1.0032619531e+05
    1.3831341639e-02    1.0031340625e+05
    1.3853288256e-02    1.0029456250e+05
    1.3875273056e-02    1.0028221875e+05
    1.3897285797e-02    1.0025896875e+05
    1.3919321820e-02    1.0023246094e+05
    1.3941374607e-02    1.0020450000e+05
    1.3963440433e-02    1.0017397656e+05
    1.3985517435e-02    1.0014261719e+05
    1.4007603750e-02    1.0010964844e+05
    1.4029704034e-02    1.0007643750e+05
    1.4051820152e-02    1.0003975000e+05
    1.4073957689e-02    1.0000253906e+05
    1.4096121304e-02    9.9970539062e+04
    1.4118315652e-02    9.9938242188e+04
    1.4140545391e-02    9.9912039062e+04
    1.4162814245e-02    9.9895281250e+04
    1.4185124077e-02    9.9882093750e+04
    1.4207473956e-02    9.9869750000e+04
    1.4229862019e-02    9.9856773438e+04
    1.4252286404e-02    9.9848148438e+04
    1.4274741523e-02    9.9842460938e+04
    1.4297228307e-02    9.9837281250e+04
    1.4319745824e-02    9.9847914062e+04
    1.4342290349e-02    9.9851687500e+04
    1.4364863746e-02    9.9874320312e+04
    1.4387467876e-02    9.9895000000e+04
    1.4410103671e-02    9.9916179688e+04
    1.4432771131e-02    9.9940023438e+04
    1.4455472119e-02    9.9965585938e+04
    1.4478209428e-02    9.9996625000e+04
    1.4500979334e-02    1.0002547656e+05
    1.4523783699e-02    1.0005789844e+05
    1.4546621591e-02    1.0008962500e+05
    1.4569494873e-02    1.0011486719e+05
    1.4592399821e-02    1.0013890625e+05
    1.4615339227e-02    1.0015612500e+05
    1.4638305642e-02    1.0017762500e+05
    1.4661304653e-02    1.0019435156e+05
    1.4684336260e-02    1.0021522656e+05
    1.4707398601e-02    1.0022200000e+05
    1.4730494469e-02    1.0022825000e+05
    1.4753622934e-02    1.0023575000e+05
    1.4776783995e-02    1.0024712500e+05
    1.4799979515e-02    1.0025214844e+05
    1.4823205769e-02    1.0026158594e+05
    1.4846466482e-02    1.0027528906e+05
    1.4869757928e-02    1.0029189844e+05
    1.4893081971e-02    1.0031036719e+05
    1.4916437678e-02    1.0033703906e+05
    1.4939822257e-02    1.0036439844e+05
    1.4963239431e-02    1.0039810156e+05
    1.4986685477e-02    1.0042849219e+05
    1.5010161325e-02    1.0046097656e+05
    1.5033668838e-02    1.0049389844e+05
    1.5057205223e-02    1.0052721094e+05
    1.5080772340e-02    1.0055649219e+05
    1.5104367398e-02    1.0058114844e+05
    1.5127992257e-02    1.0060790625e+05
    1.5151646920e-02    1.0063489844e+05
    1.5175330453e-02    1.0065313281e+05
    1.5199041925e-02    1.0066807031e+05
    1.5222782269e-02    1.0068621094e+05
    1.5246548690e-02    1.0070818750e+05
    1.5270343982e-02    1.0072638281e+05
    1.5294168144e-02    1.0075083594e+05
    1.5318016522e-02    1.0077736719e+05
    1.5341891907e-02    1.0081062500e+05
    1.5365792438e-02    1.0084600000e+05
    1.5389721841e-02    1.0087991406e+05
    1.5413676389e-02    1.0091453906e+05
    1.5437657945e-02    1.0094897656e+05
    1.5461664647e-02    1.0098735156e+05
    1.5485695563e-02    1.0102408594e+05
    1.5509752557e-02    1.0105424219e+05
    1.5533835627e-02    1.0107896094e+05
    1.5557944775e-02    1.0109591406e+05
    1.5582079068e-02    1.0110602344e+05
    1.5606240369e-02    1.0111353125e+05
    1.5630424023e-02    1.0111285156e+05
    1.5654634684e-02    1.0111036719e+05
    1.5678871423e-02    1.0110249219e+05
    1.5703132376e-02    1.0109260156e+05
    1.5727419406e-02    1.0108896094e+05
    1.5751728788e-02    1.0108680469e+05
    1.5776060522e-02    1.0108664844e+05
    1.5800418332e-02    1.0109414844e+05
    1.5824800357e-02    1.0110433594e+05
    1.5849204734e-02    1.0112531250e+05
    1.5873633325e-02    1.0114777344e+05
    1.5898084268e-02    1.0118185156e+05
    1.5922557563e-02    1.0121396875e+05
    1.5947058797e-02    1.0125402344e+05
    1.5971582383e-02    1.0129589844e+05
    1.5996130183e-02    1.0134085156e+05
    1.6020702198e-02    1.0137803906e+05
    1.6045298427e-02    1.0141519531e+05
    1.6069920734e-02    1.0145540625e+05
    1.6094569117e-02    1.0149641406e+05
    1.6119243577e-02    1.0152709375e+05
    1.6143942252e-02    1.0155683594e+05
    1.6168667004e-02    1.0158664844e+05
    1.6193419695e-02    1.0161564844e+05
    1.6218200326e-02    1.0163957031e+05
    1.6243007034e-02    1.0165717969e+05
    1.6267839819e-02    1.0168356250e+05
    1.6292702407e-02    1.0169824219e+05
    1.6317596659e-02    1.0170603906e+05
    1.6342513263e-02    1.0170621094e+05
    1.6367461532e-02    1.0170317969e+05
    1.6392435879e-02    1.0170147656e+05
    1.6417443752e-02    1.0169721094e+05
    1.6442479566e-02    1.0168777344e+05
    1.6467543319e-02    1.0168021875e+05
    1.6492636874e-02    1.0167041406e+05
    1.6517756507e-02    1.0165414844e+05
    1.6542907804e-02    1.0163882031e+05
    1.6568088904e-02    1.0162967969e+05
    1.6593271866e-02    1.0163521094e+05
    1.6618426889e-02    1.0164464844e+05
    1.6643559560e-02    1.0165600781e+05
    1.6668669879e-02    1.0167933594e+05
    1.6693757847e-02    1.0169628906e+05
    1.6718825325e-02    1.0171730469e+05
    1.6743874177e-02    1.0174586719e+05
    1.6768900678e-02    1.0177721875e+05
    1.6793908551e-02    1.0181027344e+05
    1.6818899661e-02    1.0184291406e+05
    1.6843874007e-02    1.0186760156e+05
    1.6868829727e-02    1.0188839844e+05
    1.6893770546e-02    1.0190878906e+05
    1.6918692738e-02    1.0192466406e+05
    1.6943598166e-02    1.0193685156e+05
    1.6968490556e-02    1.0194258594e+05
    1.6993366182e-02    1.0194821875e+05
    1.7018226907e-02    1.0194212500e+05
    1.7043072730e-02    1.0193465625e+05
    1.7067901790e-02    1.0193497656e+05
    1.7092714086e-02    1.0192327344e+05
    1.7117511481e-02    1.0191897656e+05
    1.7142292112e-02    1.0190328125e+05
    1.7167057842e-02    1.0189558594e+05
    1.7191808671e-02    1.0188782031e+05
    1.7216544598e-02    1.0187912500e+05
    1.7241263762e-02    1.0187569531e+05
    1.7265968025e-02    1.0186814844e+05
    1.7290659249e-02    1.0186642969e+05
    1.7315333709e-02    1.0186553906e+05
    1.7339993268e-02    1.0186446875e+05
    1.7364639789e-02    1.0186718750e+05
    1.7389267683e-02    1.0186884375e+05
    1.7413880676e-02    1.0187381250e+05
    1.7438478768e-02    1.0188064844e+05
    1.7463061959e-02    1.0188314844e+05
    1.7487626523e-02    1.0189302344e+05
    1.7512176186e-02    1.0190303906e+05
    1.7536709085e-02    1.0191266406e+05
    1.7561223358e-02    1.0191746094e+05
    1.7585720867e-02    1.0192752344e+05
    1.7610201612e-02    1.0193771094e+05
    1.7634663731e-02    1.0195385156e+05
    1.7659107223e-02    1.0198647656e+05
    1.7683532089e-02    1.0202611719e+05
    1.7707940191e-02    1.0207964844e+05
    1.7732329667e-02    1.0213910156e+05
    1.7756698653e-02    1.0222277344e+05
    1.7781050876e-02    1.0232396094e+05
    1.7805384472e-02    1.0243808594e+05
    1.7829699442e-02    1.0256352344e+05
    1.7853999510e-02    1.0271021875e+05
    1.7878280953e-02    1.0286033594e+05
    1.7902545631e-02    1.0301327344e+05
    1.7926793545e-02    1.0315466406e+05
    1.7951028422e-02    1.0328225000e+05
    1.7975246534e-02    1.0338299219e+05
    1.7999447882e-02    1.0345362500e+05
    1.8023636192e-02    1.0348514844e+05
    1.8047811463e-02    1.0347384375e+05
    1.8071975559e-02    1.0342733594e+05
    1.8096126616e-02    1.0334238281e+05
    1.8120266497e-02    1.0320749219e+05
    1.8144397065e-02    1.0302783594e+05
    1.8168520182e-02    1.0280668750e+05
    1.8192630261e-02    1.0255341406e+05
    1.8216732889e-02    1.0228352344e+05
    1.8240824342e-02    1.0200781250e+05
    1.8264908344e-02    1.0174322656e+05
    1.8288983032e-02    1.0149571875e+05
    1.8313048407e-02    1.0127307031e+05
    1.8337102607e-02    1.0106714844e+05
    1.8361147493e-02    1.0089746094e+05
    1.8385183066e-02    1.0075394531e+05
    1.8409207463e-02    1.0064325781e+05
    1.8433224410e-02    1.0056205469e+05
    1.8457230181e-02    1.0050161719e+05
    1.8481226638e-02    1.0046303906e+05
    1.8505210057e-02    1.0044118750e+05
    1.8529184163e-02    1.0043833594e+05
    1.8553148955e-02    1.0044225000e+05
    1.8577100709e-02    1.0045607031e+05
    1.8601041287e-02    1.0047696094e+05
    1.8624972552e-02    1.0051375781e+05
    1.8648892641e-02    1.0055103125e+05
    1.8672801554e-02    1.0060369531e+05
    1.8696699291e-02    1.0065728906e+05
    1.8720587716e-02    1.0071260156e+05
    1.8744463101e-02    1.0077811719e+05
    1.8768329173e-02    1.0083691406e+05
    1.8792184070e-02    1.0089583594e+05
    1.8816027790e-02    1.0096259375e+05
    1.8839860335e-02    1.0103009375e+05
    1.8863683566e-02    1.0109768750e+05
    1.8887493759e-02    1.0117436719e+05
    1.8911294639e-02    1.0124980469e+05
    1.8935086206e-02    1.0132668750e+05
    1.8958866596e-02    1.0141506250e+05
    1.8982635811e-02    1.0150885156e+05
    1.9006397575e-02    1.0160932031e+05
    1.9030146301e-02    1.0171825781e+05
    1.9053885713e-02    1.0182960156e+05
    1.9077615812e-02    1.0193922656e+05
    1.9101334736e-02    1.0204583594e+05
    1.9125042483e-02    1.0215399219e+05
    1.9148740917e-02    1.0225471094e+05
    1.9172428176e-02    1.0233963281e+05
    1.9196104258e-02    1.0242408594e+05
    1.9219771028e-02    1.0249211719e+05
    1.9243424758e-02    1.0255993750e+05
    1.9267069176e-02    1.0260991406e+05
    1.9290700555e-02    1.0265564844e+05
    1.9314322621e-02    1.0270046094e+05
    1.9337931648e-02    1.0272662500e+05
    1.9361529499e-02    1.0275590625e+05
    1.9385114312e-02    1.0277512500e+05
    1.9408687949e-02    1.0277878906e+05
    1.9432250410e-02    1.0277672656e+05
    1.9455801696e-02    1.0277311719e+05
    1.9479339942e-02    1.0275389844e+05
    1.9502865151e-02    1.0272996875e+05
    1.9526379183e-02    1.0271013281e+05
    1.9549878314e-02    1.0268203906e+05
    1.9573366269e-02    1.0264869531e+05
    1.9596841186e-02    1.0261874219e+05
    1.9620303065e-02    1.0258069531e+05
    1.9643751904e-02    1.0254171094e+05
    1.9667187706e-02    1.0250543750e+05
    1.9690606743e-02    1.0246760156e+05
    1.9714014605e-02    1.0244358594e+05
    1.9737409428e-02    1.0242053125e+05
    1.9760791212e-02    1.0240227344e+05
    1.9784159958e-02    1.0238122656e+05
    1.9807513803e-02    1.0235977344e+05
    1.9830854610e-02    1.0234402344e+05
    1.9854182377e-02    1.0233459375e+05
    1.9877497107e-02    1.0232683594e+05
    1.9900798798e-02    1.0232588281e+05
    1.9924087450e-02    1.0232677344e+05
    1.9947361201e-02    1.0232697656e+05
    1.9970623776e-02    1.0233265625e+05
    1.9993871450e-02    1.0233909375e+05
    2.0017107949e-02    1.0234150000e+05
    2.0040329546e-02    1.0234228125e+05
    2.0063538104e-02    1.0234793750e+05
    2.0086731762e-02    1.0234828906e+05
    2.0109914243e-02    1.0234878906e+05
    2.0133081824e-02    1.0235010156e+05
    2.0156236365e-02    1.0234588281e+05
    2.0179376006e-02    1.0234212500e+05
    2.0202504471e-02    1.0232822656e+05
    2.0225618035e-02    1.0231516406e+05
    2.0248720422e-02    1.0230064844e+05
    2.0271807909e-02    1.0228202344e+05
    2.0294882357e-02    1.0226616406e+05
    2.0317947492e-02    1.0224527344e+05
    2.0340997726e-02    1.0222328906e+05
    2.0364036784e-02    1.0219867969e+05
    2.0387060940e-02    1.0217364844e+05
    2.0410073921e-02    1.0215075781e+05
    2.0433073863e-02    1.0212713281e+05
    2.0456060767e-02    1.0210993750e+05
    2.0479036495e-02    1.0208903906e+05
    2.0501999184e-02    1.0206514844e+05
    2.0524948835e-02    1.0204257031e+05
    2.0547885448e-02    1.0202415625e+05
    2.0570809022e-02    1.0200544531e+05
    2.0593719557e-02    1.0199124219e+05
    2.0616617054e-02    1.0197722656e+05
    2.0639499649e-02    1.0196365625e+05
    2.0662369207e-02    1.0195508594e+05
    2.0685223863e-02    1.0194236719e+05
    2.0708063617e-02    1.0192817969e+05
    2.0730890334e-02    1.0191547656e+05
    2.0753700286e-02    1.0190732031e+05
    2.0776495337e-02    1.0189671094e+05
    2.0799275488e-02    1.0188646875e+05
    2.0822042599e-02    1.0187671094e+05
    2.0844791085e-02    1.0186211719e+05
    2.0867524669e-02    1.0185719531e+05
    2.0890241489e-02    1.0184802344e+05
    2.0912945271e-02    1.0183825000e+05
    2.0935632288e-02    1.0182369531e+05
    2.0958306268e-02    1.0181164844e+05
    2.0980965346e-02    1.0180508594e+05
    2.1003607661e-02    1.0179250000e+05
    2.1026238799e-02    1.0178491406e+05
    2.1048855036e-02    1.0177752344e+05
    2.1071458235e-02    1.0176671094e+05
    2.1094048396e-02    1.0175878906e+05
    2.1116625518e-02    1.0175265625e+05
    2.1139191464e-02    1.0174972656e+05
    2.1161744371e-02    1.0174862500e+05
    2.1184286103e-02    1.0174355469e+05
    2.1206818521e-02    1.0174658594e+05
    2.1229337901e-02    1.0175112500e+05
    2.1251846105e-02    1.0175447656e+05
    2.1274344996e-02    1.0176191406e+05
    2.1296832711e-02    1.0177021094e+05
    2.1319312975e-02    1.0178202344e+05
    2.1341778338e-02    1.0179514844e+05
    2.1364232525e-02    1.0180439844e+05
    2.1386675537e-02    1.0181810156e+05
    2.1409107372e-02    1.0182752344e+05
    2.1431528032e-02    1.0183311719e+05
    2.1453931928e-02    1.0184336719e+05
    2.1476324648e-02    1.0185860156e+05
    2.1498700604e-02    1.0187027344e+05
    2.1521063522e-02    1.0188260156e+05
    2.1543409675e-02    1.0189964844e+05
    2.1565740928e-02    1.0190768750e+05
    2.1588053554e-02    1.0191538281e+05
    2.1610351279e-02    1.0193221094e+05
    2.1632634103e-02    1.0193958594e+05
    2.1654898301e-02    1.0194706250e+05
    2.1677147597e-02    1.0195364844e+05
    2.1699378267e-02    1.0195985156e+05
    2.1721594036e-02    1.0196583594e+05
    2.1743793041e-02    1.0197136719e+05
    2.1765975282e-02    1.0197703906e+05
    2.1788140759e-02    1.0198175781e+05
    2.1810289472e-02    1.0198564844e+05
    2.1832419559e-02    1.0198586719e+05
    2.1854531020e-02    1.0198575781e+05
    2.1876627579e-02    1.0199025000e+05
    2.1898705512e-02    1.0199368750e+05
    2.1920768544e-02    1.0198759375e+05
    2.1942811087e-02    1.0199058594e+05
    2.1964838728e-02    1.0199365625e+05
    2.1986849606e-02    1.0199621094e+05
    2.2008845583e-02    1.0199325781e+05
    2.2030822933e-02    1.0199046875e+05
    2.2052785382e-02    1.0198677344e+05
    2.2074732929e-02    1.0198368750e+05
    2.2096665576e-02    1.0198446875e+05
    2.2118583322e-02    1.0198664844e+05
    2.2140489891e-02    1.0198872656e+05
    2.2162377834e-02    1.0199014844e+05
    2.2184254602e-02    1.0199135156e+05
    2.2206118330e-02    1.0198197656e+05
    2.2227969021e-02    1.0197191406e+05
    2.2249806672e-02    1.0196087500e+05
    2.2271629423e-02    1.0195952344e+05
    2.2293440998e-02    1.0196291406e+05
    2.2315241396e-02    1.0195960156e+05
    2.2337028757e-02    1.0195489844e+05
    2.2358803079e-02    1.0194511719e+05
    2.2380566224e-02    1.0193858594e+05
    2.2402318195e-02    1.0192735156e+05
    2.2424057126e-02    1.0192077344e+05
    2.2445784882e-02    1.0192330469e+05
    2.2467501462e-02    1.0192202344e+05
    2.2489206865e-02    1.0191852344e+05
    2.2510899231e-02    1.0190585156e+05
    2.2532582283e-02    1.0190521094e+05
    2.2554252297e-02    1.0190942969e+05
    2.2575911134e-02    1.0190822656e+05
    2.2597560659e-02    1.0191712500e+05
    2.2619199008e-02    1.0192583594e+05
    2.2640828043e-02    1.0192631250e+05
    2.2662445903e-02    1.0192717969e+05
    2.2684050724e-02    1.0193250000e+05
    2.2705646232e-02    1.0193835156e+05
    2.2727232426e-02    1.0193946094e+05
    2.2748809308e-02    1.0194514844e+05
    2.2770375013e-02    1.0195116406e+05
    2.2791929543e-02    1.0195319531e+05
    2.2813472897e-02    1.0194807031e+05
    2.2835006937e-02    1.0195130469e+05
    2.2856531665e-02    1.0195672656e+05
    2.2878047079e-02    1.0195761719e+05
    2.2899549454e-02    1.0195872656e+05
    2.2921044379e-02    1.0195539844e+05
    2.2942528129e-02    1.0195141406e+05
    2.2964000702e-02    1.0195187500e+05
    2.2985465825e-02    1.0195274219e+05
    2.3006917909e-02    1.0195097656e+05
    2.3028360680e-02    1.0194946094e+05
    2.3049792275e-02    1.0194938281e+05
    2.3071214557e-02    1.0194491406e+05
    2.3092625663e-02    1.0194505469e+05
    2.3114029318e-02    1.0194444531e+05
    2.3135419935e-02    1.0194443750e+05
    2.3156799376e-02    1.0194528125e+05
    2.3178169504e-02    1.0194571094e+05
    2.3199530318e-02    1.0194850781e+05
    2.3220879957e-02    1.0195146875e+05
    2.3242218420e-02    1.0195052344e+05
    2.3263547570e-02    1.0195153906e+05
    2.3284865543e-02    1.0195544531e+05
    2.3306174204e-02    1.0196125000e+05
    2.3327469826e-02    1.0196259375e+05
    2.3348756135e-02    1.0196328125e+05
    2.3370031267e-02    1.0196447656e+05
    2.3391297087e-02    1.0196488281e+05
    2.3412553594e-02    1.0196653125e+05
    2.3433798924e-02    1.0197753906e+05
    2.3455033079e-02    1.0198241406e+05
    2.3476256058e-02    1.0199253906e+05
    2.3497469723e-02    1.0199663281e+05
    2.3518672213e-02    1.0200282031e+05
    2.3539865389e-02    1.0201428906e+05
    2.3561049253e-02    1.0202910156e+05
    2.3582221940e-02    1.0204469531e+05
    2.3603385314e-02    1.0205588281e+05
    2.3624535650e-02    1.0206808594e+05
    2.3645676672e-02    1.0209582031e+05
    2.3666808382e-02    1.0211597656e+05
    2.3687927052e-02    1.0213213281e+05
    2.3709038273e-02    1.0215841406e+05
    2.3730138317e-02    1.0217664844e+05
    2.3751227185e-02    1.0219727344e+05
    2.3772306740e-02    1.0221861719e+05
    2.3793375120e-02    1.0224293750e+05
    2.3814432323e-02    1.0225877344e+05
    2.3835480213e-02    1.0227910156e+05
    2.3856516927e-02    1.0229991406e+05
    2.3877544329e-02    1.0231053125e+05
    2.3898560554e-02    1.0232093750e+05
    2.3919565603e-02    1.0232584375e+05
    2.3940561339e-02    1.0232881250e+05
    2.3961545900e-02    1.0233056250e+05
    2.3982519284e-02    1.0233087500e+05
    2.4003483355e-02    1.0232208594e+05
    2.4024436250e-02    1.0230925000e+05
    2.4045377970e-02    1.0229139844e+05
    2.4066310376e-02    1.0226906250e+05
    2.4087233469e-02    1.0224425000e+05
    2.4108145386e-02    1.0221009375e+05
    2.4129044265e-02    1.0217167969e+05
    2.4149935693e-02    1.0212713281e+05
    2.4170814082e-02    1.0208439844e+05
    2.4191683158e-02    1.0204139844e+05
    2.4212542921e-02    1.0200092969e+05
    2.4233391508e-02    1.0196107031e+05
    2.4254228920e-02    1.0192952344e+05
    2.4275057018e-02    1.0189672656e+05
    2.4295873940e-02    1.0187253125e+05
    2.4316681549e-02    1.0184918750e+05
    2.4337477982e-02    1.0184374219e+05
    2.4358265102e-02    1.0184540625e+05
    2.4379042909e-02    1.0185722656e+05
    2.4399809539e-02    1.0187681250e+05
    2.4420566857e-02    1.0189571094e+05
    2.4441312999e-02    1.0191968750e+05
    2.4462047964e-02    1.0195171875e+05
    2.4482775480e-02    1.0198068750e+05
    2.4503491819e-02    1.0201732031e+05
    2.4524198845e-02    1.0205017969e+05
    2.4544894695e-02    1.0208055469e+05
    2.4565581232e-02    1.0211060156e+05
    2.4586258456e-02    1.0213324219e+05
    2.4606924504e-02    1.0216117969e+05
    2.4627581239e-02    1.0218492969e+05
    2.4648228660e-02    1.0220958594e+05
    2.4668866768e-02    1.0222728906e+05
    2.4689495564e-02    1.0223558594e+05
    2.4710113183e-02    1.0225153906e+05
    2.4730721489e-02    1.0226696094e+05
    2.4751318619e-02    1.0228162500e+05
    2.4771906435e-02    1.0228641406e+05
    2.4792486802e-02    1.0230006250e+05
    2.4813055992e-02    1.0231339844e+05
    2.4833614007e-02    1.0232625781e+05
    2.4854162708e-02    1.0232942969e+05
    2.4874702096e-02    1.0234259375e+05
    2.4895232171e-02    1.0236039844e+05
    2.4915752932e-02    1.0237356250e+05
    2.4936262518e-02    1.0238159375e+05
    2.4956764653e-02    1.0239381250e+05
    2.4977253750e-02    1.0239558594e+05
    2.4997735396e-02    1.0240587500e+05
    2.5018205866e-02    1.0240659375e+05
    2.5038668886e-02    1.0241600000e+05
    2.5059120730e-02    1.0241515625e+05
    2.5079563260e-02    1.0241846094e+05
    2.5099996477e-02    1.0242144531e+05
    2.5120420381e-02    1.0241964844e+05
    2.5140833110e-02    1.0241600781e+05
    2.5161236525e-02    1.0241197656e+05
    2.5181630626e-02    1.0241072656e+05
    2.5202017277e-02    1.0240952344e+05
    2.5222390890e-02    1.0240271875e+05
    2.5242757052e-02    1.0239497656e+05
    2.5263112038e-02    1.0238650000e+05
    2.5283459574e-02    1.0238175000e+05
    2.5303795934e-02    1.0237694531e+05
    2.5324124843e-02    1.0237587500e+05
    2.5344440714e-02    1.0236466406e+05
    2.5364749134e-02    1.0235813281e+05
    2.5385048240e-02    1.0235097656e+05
    2.5405339897e-02    1.0234883594e+05
    2.5425618514e-02    1.0234617969e+05
    2.5445887819e-02    1.0233907031e+05
    2.5466147810e-02    1.0233636719e+05
    2.5486400351e-02    1.0233152344e+05
    2.5506639853e-02    1.0232546094e+05
    2.5526873767e-02    1.0232222656e+05
    2.5547094643e-02    1.0231981250e+05
    2.5567308068e-02    1.0232189844e+05
    2.5587510318e-02    1.0232182031e+05
    2.5607703254e-02    1.0231259375e+05
    2.5627886876e-02    1.0230962500e+05
    2.5648061186e-02    1.0230628906e+05
    2.5668226182e-02    1.0229744531e+05
    2.5688380003e-02    1.0228846875e+05
    2.5708526373e-02    1.0228763281e+05
    2.5728661567e-02    1.0228725781e+05
    2.5748789310e-02    1.0227550000e+05
    2.5768904015e-02    1.0226875781e+05
    2.5789011270e-02    1.0226421094e+05
    2.5809109211e-02    1.0225982031e+05
    2.5829195976e-02    1.0225528906e+05
    2.5849273428e-02    1.0224584375e+05
    2.5869343430e-02    1.0223833594e+05
    2.5889402255e-02    1.0223113281e+05
    2.5909451768e-02    1.0223009375e+05
    2.5929493830e-02    1.0222478906e+05
    2.5949522853e-02    1.0221472656e+05
    2.5969544426e-02    1.0220866406e+05
    2.5989556685e-02    1.0220266406e+05
    2.6009559631e-02    1.0219647656e+05
    2.6029553264e-02    1.0219061719e+05
    2.6049537584e-02    1.0218975000e+05
    2.6069512591e-02    1.0218955469e+05
    2.6089478284e-02    1.0218486719e+05
    2.6109432802e-02    1.0218028906e+05
    2.6129379869e-02    1.0217549219e+05
    2.6149315760e-02    1.0217050000e+05
    2.6169244200e-02    1.0216989844e+05
    2.6189163327e-02    1.0217041406e+05
    2.6209073141e-02    1.0217111719e+05
    2.6228975505e-02    1.0217297656e+05
    2.6248866692e-02    1.0217550781e+05
    2.6268748567e-02    1.0217383594e+05
    2.6288621128e-02    1.0217700000e+05
    2.6308484375e-02    1.0218071094e+05
    2.6328338310e-02    1.0218396094e+05
    2.6348184794e-02    1.0218307031e+05
    2.6368021965e-02    1.0218713281e+05
    2.6387847960e-02    1.0218708594e+05
    2.6407664642e-02    1.0218733594e+05
    2.6427472010e-02    1.0218987500e+05
    2.6447271928e-02    1.0219225000e+05
    2.6467062533e-02    1.0219266406e+05
    2.6486843824e-02    1.0220228906e+05
    2.6506617665e-02    1.0220338281e+05
    2.6526380330e-02    1.0220480469e+05
    2.6546133682e-02    1.0220624219e+05
    2.6565877721e-02    1.0220789844e+05
    2.6585612446e-02    1.0221128906e+05
    2.6605339721e-02    1.0221386719e+05
    2.6625057682e-02    1.0221069531e+05
    2.6644766331e-02    1.0221206250e+05
    2.6664465666e-02    1.0221325781e+05
    2.6684155688e-02    1.0221912500e+05
    2.6703836396e-02    1.0222260156e+05
    2.6723509654e-02    1.0222615625e+05
    2.6743173599e-02    1.0222721094e+05
    2.6762828231e-02    1.0222277344e+05
    2.6782475412e-02    1.0222258594e+05
    2.6802113280e-02    1.0221693750e+05
    2.6821739972e-02    1.0221641406e+05
    2.6841359213e-02    1.0221581250e+05
    2.6860967278e-02    1.0221603906e+05
    2.6880569756e-02    1.0221578906e+05
    2.6900164783e-02    1.0221621094e+05
    2.6919748634e-02    1.0221665625e+05
    2.6939325035e-02    1.0221743750e+05
    2.6958892122e-02    1.0221824219e+05
    2.6978449896e-02    1.0221868750e+05
    2.6997998357e-02    1.0221910156e+05
    2.7017539367e-02    1.0222003906e+05
    2.7037071064e-02    1.0222097656e+05
    2.7056595311e-02    1.0222228906e+05
    2.7076110244e-02    1.0222430469e+05
    2.7095617726e-02    1.0222682031e+05
    2.7115115896e-02    1.0222974219e+05
    2.7134604752e-02    1.0223889844e+05
    2.7154086158e-02    1.0224275781e+05
    2.7173558250e-02    1.0225225000e+05
    2.7193021029e-02    1.0226000781e+05
    2.7212476358e-02    1.0226864844e+05
    2.7231922373e-02    1.0227589844e+05
    2.7251357213e-02    1.0228815625e+05
    2.7270786464e-02    1.0230178125e+05
    2.7290204540e-02    1.0231107031e+05
    2.7309613302e-02    1.0232453125e+05
    2.7329014614e-02    1.0233372656e+05
    2.7348404750e-02    1.0234309375e+05
    2.7367785573e-02    1.0235183594e+05
    2.7387158945e-02    1.0235991406e+05
    2.7406521142e-02    1.0236834375e+05
    2.7425874025e-02    1.0238441406e+05
    2.7445219457e-02    1.0239336719e+05
    2.7464553714e-02    1.0239535156e+05
    2.7483878657e-02    1.0240340625e+05
    2.7503194287e-02    1.0241109375e+05
    2.7522502467e-02    1.0241755469e+05
    2.7541799471e-02    1.0242341406e+05
    2.7561087161e-02    1.0242368750e+05
    2.7580365539e-02    1.0242871875e+05
    2.7599634603e-02    1.0242827344e+05
    2.7618894354e-02    1.0242716406e+05
    2.7638144791e-02    1.0242983594e+05
    2.7657385916e-02    1.0242809375e+05
    2.7676619589e-02    1.0242502344e+05
    2.7695843950e-02    1.0242641406e+05
    2.7715058997e-02    1.0242714844e+05
    2.7734262869e-02    1.0242777344e+05
    2.7753459290e-02    1.0242297656e+05
    2.7772648260e-02    1.0242193750e+05
    2.7791827917e-02    1.0241582031e+05
    2.7810998261e-02    1.0241008594e+05
    2.7830159292e-02    1.0240280469e+05
    2.7849311009e-02    1.0240066406e+05
    2.7868455276e-02    1.0239583594e+05
    2.7887590230e-02    1.0239547656e+05
    2.7906717733e-02    1.0238878125e+05
    2.7925835922e-02    1.0239053906e+05
    2.7944946662e-02    1.0238384375e+05
    2.7964048088e-02    1.0238125000e+05
    2.7983140200e-02    1.0237262500e+05
    2.8002224863e-02    1.0236913281e+05
    2.8021300212e-02    1.0236489844e+05
    2.8040368110e-02    1.0236047656e+05
    2.8059426695e-02    1.0235192969e+05
    2.8078475967e-02    1.0235552344e+05
    2.8097519651e-02    1.0235103125e+05
    2.8116554022e-02    1.0234591406e+05
    2.8135580942e-02    1.0235009375e+05
    2.8154598549e-02    1.0233810156e+05
    2.8173606843e-02    1.0234388281e+05
    2.8192607686e-02    1.0234060156e+05
    2.8211599216e-02    1.0233758594e+05
    2.8230583295e-02    1.0233272656e+05
    2.8249559924e-02    1.0233059375e+05
    2.8268527240e-02    1.0233077344e+05
    2.8287487105e-02    1.0232859375e+05
    2.8306435794e-02    1.0232692969e+05
    2.8325378895e-02    1.0232725781e+05
    2.8344312683e-02    1.0232774219e+05
    2.8363237157e-02    1.0232728906e+05
    2.8382156044e-02    1.0233103125e+05
    2.8401065618e-02    1.0233035156e+05
    2.8419965878e-02    1.0232943750e+05
    2.8438858688e-02    1.0232863281e+05
    2.8457742184e-02    1.0232799219e+05
    2.8476616368e-02    1.0232727344e+05
    2.8495483100e-02    1.0232665625e+05
    2.8514338657e-02    1.0233100781e+05
    2.8533160686e-02    1.0233025000e+05
    2.8551930562e-02    1.0232575000e+05
    2.8570635244e-02    1.0232560156e+05
    2.8589271009e-02    1.0233060156e+05
    2.8607837856e-02    1.0233125781e+05
    2.8626350686e-02    1.0233610156e+05
    2.8644818813e-02    1.0233664844e+05
    2.8663259000e-02    1.0232757031e+05
    2.8681686148e-02    1.0232990625e+05
    2.8700113297e-02    1.0232768750e+05
    2.8718546033e-02    1.0233500000e+05
    2.8736986220e-02    1.0232856250e+05
    2.8755431995e-02    1.0233391406e+05
    2.8773877770e-02    1.0233219531e+05
    2.8792314231e-02    1.0233040625e+05
    2.8810730204e-02    1.0233553906e+05
    2.8829116374e-02    1.0233302344e+05
    2.8847465292e-02    1.0233094531e+05
    2.8865773231e-02    1.0233075000e+05
    2.8884036466e-02    1.0233013281e+05
    2.8902258724e-02    1.0232936719e+05
    2.8920443729e-02    1.0232641406e+05
    2.8938598931e-02    1.0232274219e+05
    2.8956729919e-02    1.0232446875e+05
    2.8974846005e-02    1.0232621094e+05
    2.8992949054e-02    1.0232094531e+05
    2.9011042789e-02    1.0232027344e+05
    2.9029129073e-02    1.0231889844e+05
    2.9047204182e-02    1.0231268750e+05
    2.9065268114e-02    1.0231133594e+05
    2.9083315283e-02    1.0230506250e+05
    2.9101338238e-02    1.0230327344e+05
    2.9119335115e-02    1.0230158594e+05
    2.9137304053e-02    1.0230396094e+05
    2.9155241325e-02    1.0230225000e+05
    2.9173148796e-02    1.0230014844e+05
    2.9191024601e-02    1.0229366406e+05
    2.9208874330e-02    1.0228952344e+05
    2.9226697981e-02    1.0229487500e+05
    2.9244501144e-02    1.0228858594e+05
    2.9262285680e-02    1.0229158594e+05
    2.9280053452e-02    1.0229066406e+05
    2.9297806323e-02    1.0228985156e+05
    2.9315544292e-02    1.0228968750e+05
    2.9333265498e-02    1.0228878906e+05
    2.9350971803e-02    1.0228808594e+05
    2.9368655756e-02    1.0228761719e+05
    2.9386319220e-02    1.0228814844e+05
    2.9403960332e-02    1.0229337500e+05
    2.9421577230e-02    1.0229960156e+05
    2.9439168051e-02    1.0230065625e+05
    2.9456734657e-02    1.0230246094e+05
    2.9474277049e-02    1.0230412500e+05
    2.9491795227e-02    1.0231063281e+05
    2.9509292915e-02    1.0231275781e+05
    2.9526771978e-02    1.0231992969e+05
    2.9544232413e-02    1.0232264844e+05
    2.9561674222e-02    1.0232349219e+05
    2.9579099268e-02    1.0232880469e+05
    2.9596509412e-02    1.0233178906e+05
    2.9613900930e-02    1.0233514844e+05
    2.9631273821e-02    1.0233869531e+05
    2.9648626223e-02    1.0235218750e+05
    2.9665958136e-02    1.0235688281e+05
    2.9683271423e-02    1.0236246094e+05
    2.9700560495e-02    1.0237282031e+05
    2.9717829078e-02    1.0237377344e+05
    2.9735075310e-02    1.0238436719e+05
    2.9752301052e-02    1.0239285156e+05
    2.9769508168e-02    1.0239412500e+05
    2.9786696658e-02    1.0239803125e+05
    2.9803866521e-02    1.0240396875e+05
    2.9821017757e-02    1.0240934375e+05
    2.9838152230e-02    1.0241500000e+05
    2.9855269939e-02    1.0242035156e+05
    2.9872370884e-02    1.0242538281e+05
    2.9889453202e-02    1.0243052344e+05
    2.9906518757e-02    1.0242853906e+05
    2.9923565686e-02    1.0243052344e+05
    2.9940593988e-02    1.0243482031e+05
    2.9957601801e-02    1.0243333594e+05
    2.9974590987e-02    1.0243678906e+05
    2.9991561547e-02    1.0243475000e+05
    3.0008511618e-02    1.0243646875e+05
    3.0025444925e-02    1.0242828125e+05
    3.0042361468e-02    1.0242360156e+05
    3.0059259385e-02    1.0241814844e+05
    3.0076142401e-02    1.0241169531e+05
    3.0093006790e-02    1.0239919531e+05
    3.0109854415e-02    1.0239116406e+05
    3.0126683414e-02    1.0238260156e+05
    3.0143497512e-02    1.0237800781e+05
    3.0160292983e-02    1.0236831250e+05
    3.0177071691e-02    1.0236510156e+05
    3.0193833634e-02    1.0235708594e+05
    3.0210576952e-02    1.0234786719e+05
    3.0227303505e-02    1.0233853125e+05
    3.0244011432e-02    1.0233072656e+05
    3.0260702595e-02    1.0232313281e+05
    3.0277376994e-02    1.0231528125e+05
    3.0294034630e-02    1.0231442969e+05
    3.0310675502e-02    1.0230861719e+05
    3.0327299610e-02    1.0230057031e+05
    3.0343905091e-02    1.0229252344e+05
    3.0360495672e-02    1.0228447656e+05
    3.0377071351e-02    1.0228189844e+05
    3.0393628404e-02    1.0227922656e+05
    3.0410168692e-02    1.0228196094e+05
    3.0426690355e-02    1.0227602344e+05
    3.0443195254e-02    1.0228033594e+05
    3.0459685251e-02    1.0228157031e+05
    3.0476156622e-02    1.0227834375e+05
    3.0492611229e-02    1.0227550781e+05
    3.0509050936e-02    1.0227328906e+05
    3.0525473878e-02    1.0227196094e+05
    3.0541881919e-02    1.0227600781e+05
    3.0558273196e-02    1.0228075000e+05
    3.0574647710e-02    1.0228474219e+05
    3.0591005459e-02    1.0229368750e+05
    3.0607348308e-02    1.0229621875e+05
    3.0623674393e-02    1.0229972656e+05
    3.0639985576e-02    1.0230122656e+05
    3.0656279996e-02    1.0230425781e+05
    3.0672557652e-02    1.0230933594e+05
    3.0688818544e-02    1.0231916406e+05
    3.0705062672e-02    1.0232972656e+05
    3.0721291900e-02    1.0233538281e+05
    3.0737506226e-02    1.0234232031e+05
    3.0753703788e-02    1.0234883594e+05
    3.0769886449e-02    1.0235589844e+05
    3.0786054209e-02    1.0236362500e+05
    3.0802207068e-02    1.0237005469e+05
    3.0818343163e-02    1.0238185156e+05
    3.0834466219e-02    1.0238896094e+05
    3.0850572512e-02    1.0239603906e+05
    3.0866663903e-02    1.0239552344e+05
    3.0882738531e-02    1.0239891406e+05
    3.0898798257e-02    1.0240419531e+05
    3.0914843082e-02    1.0240937500e+05
    3.0930871144e-02    1.0241391406e+05
    3.0946886167e-02    1.0241764844e+05
    3.0962884426e-02    1.0242122656e+05
    3.0978867784e-02    1.0242009375e+05
    3.0994836241e-02    1.0242310156e+05
    3.1010789797e-02    1.0241647656e+05
    3.1026728451e-02    1.0241803906e+05
    3.1042650342e-02    1.0241909375e+05
    3.1058559194e-02    1.0241462500e+05
    3.1074455008e-02    1.0241467969e+05
    3.1090334058e-02    1.0240975000e+05
    3.1106200069e-02    1.0240903906e+05
    3.1122051179e-02    1.0240814844e+05
    3.1137887388e-02    1.0240186719e+05
    3.1153710559e-02    1.0239562500e+05
    3.1169516966e-02    1.0239350000e+05
    3.1185310334e-02    1.0238641406e+05
    3.1201090664e-02    1.0238371875e+05
    3.1216854230e-02    1.0238119531e+05
    3.1232602894e-02    1.0237864844e+05
    3.1248336658e-02    1.0237610156e+05
    3.1264055520e-02    1.0237413281e+05
    3.1279761344e-02    1.0237238281e+05
    3.1295452267e-02    1.0237015625e+05
    3.1311132014e-02    1.0236341406e+05
    3.1326796860e-02    1.0236116406e+05
    3.1342446804e-02    1.0236156250e+05
    3.1358085573e-02    1.0236205469e+05
    3.1373709440e-02    1.0236012500e+05
    3.1389318407e-02    1.0235889844e+05
    3.1404916197e-02    1.0235753125e+05
    3.1420499086e-02    1.0235710156e+05
    3.1436067075e-02    1.0236566406e+05
    3.1451620162e-02    1.0236619531e+05
    3.1467158347e-02    1.0236612500e+05
    3.1482685357e-02    1.0236633594e+05
    3.1498193741e-02    1.0237605469e+05
    3.1513694674e-02    1.0237652344e+05
    3.1529176980e-02    1.0237736719e+05
    3.1544648111e-02    1.0237821094e+05
    3.1560108066e-02    1.0237874219e+05
    3.1575553119e-02    1.0237691406e+05
    3.1590986997e-02    1.0237472656e+05
    3.1606405973e-02    1.0237511719e+05
    3.1621813774e-02    1.0238015625e+05
    3.1637206674e-02    1.0238089844e+05
    3.1652588397e-02    1.0237607031e+05
    3.1667951494e-02    1.0237603125e+05
    3.1683307141e-02    1.0237567969e+05
    3.1698647887e-02    1.0237327344e+05
    3.1713977456e-02    1.0237105469e+05
    3.1729292125e-02    1.0237109375e+05
    3.1744595617e-02    1.0237308594e+05
    3.1759884208e-02    1.0237274219e+05
    3.1775161624e-02    1.0237464844e+05
    3.1790427864e-02    1.0237418750e+05
    3.1805675477e-02    1.0237318750e+05
    3.1820915639e-02    1.0237582031e+05
    3.1836140901e-02    1.0237740625e+05
    3.1851354986e-02    1.0237733594e+05
    3.1866557896e-02    1.0237521094e+05
    3.1881745905e-02    1.0237767969e+05
    3.1896922737e-02    1.0237796875e+05
    3.1912088394e-02    1.0237839844e+05
    3.1927239150e-02    1.0237896875e+05
    3.1942378730e-02    1.0238472656e+05
    3.1957507133e-02    1.0238614844e+05
    3.1972620636e-02    1.0239269531e+05
    3.1987726688e-02    1.0239486719e+05
    3.2002814114e-02    1.0239710156e+05
    3.2017890364e-02    1.0239958594e+05
    3.2032959163e-02    1.0240202344e+05
    3.2048013061e-02    1.0240178125e+05
    3.2063052058e-02    1.0239657031e+05
    3.2078083605e-02    1.0240060156e+05
    3.2093103975e-02    1.0240967969e+05
    3.2108109444e-02    1.0241187500e+05
    3.2123107463e-02    1.0241371875e+05
    3.2138090581e-02    1.0241671875e+05
    3.2153062522e-02    1.0242400781e+05
    3.2168023288e-02    1.0243152344e+05
    3.2182972878e-02    1.0243452344e+05
    3.2197911292e-02    1.0243808594e+05
    3.2212834805e-02    1.0243864844e+05
    3.2227750868e-02    1.0243722656e+05
    3.2242652029e-02    1.0243719531e+05
    3.2257542014e-02    1.0243990625e+05
    3.2272424549e-02    1.0244233594e+05
    3.2287292182e-02    1.0244499219e+05
    3.2302148640e-02    1.0244766406e+05
    3.2316997647e-02    1.0244977344e+05
    3.2331831753e-02    1.0245215625e+05
    3.2346658409e-02    1.0245449219e+05
    3.2361470163e-02    1.0245711719e+05
    3.2376270741e-02    1.0245911719e+05
    3.2391063869e-02    1.0246130469e+05
    3.2405842096e-02    1.0245814844e+05
    3.2420612872e-02    1.0245953906e+05
    3.2435368747e-02    1.0246547656e+05
    3.2450113446e-02    1.0246697656e+05
    3.2464850694e-02    1.0246577344e+05
    3.2479573041e-02    1.0246499219e+05
    3.2494287938e-02    1.0246634375e+05
    3.2508991659e-02    1.0246297656e+05
    3.2523684204e-02    1.0246450781e+05
    3.2538365573e-02    1.0246606250e+05
    3.2553035766e-02    1.0246738281e+05
    3.2567698509e-02    1.0246889844e+05
    3.2582346350e-02    1.0247009375e+05
    3.2596986741e-02    1.0247111719e+05
    3.2611619681e-02    1.0247194531e+05
    3.2626237720e-02    1.0246758594e+05
    3.2640848309e-02    1.0246328906e+05
    3.2655447721e-02    1.0246346094e+05
    3.2670035958e-02    1.0246297656e+05
    3.2684613019e-02    1.0246250781e+05
    3.2699178904e-02    1.0246728906e+05
    3.2713737339e-02    1.0246727344e+05
    3.2728284597e-02    1.0246727344e+05
    3.2742820680e-02    1.0246772656e+05
    3.2757349312e-02    1.0246322656e+05
    3.2771866769e-02    1.0246327344e+05
    3.2786373049e-02    1.0246321094e+05
    3.2800871879e-02    1.0246336719e+05
    3.2815355808e-02    1.0246250781e+05
    3.2829832286e-02    1.0246241406e+05
    3.2844301313e-02    1.0245928125e+05
    3.2858755440e-02    1.0245635156e+05
    3.2873202115e-02    1.0245733594e+05
    3.2887637615e-02    1.0245830469e+05
    3.2902065665e-02    1.0245725000e+05
    3.2916482538e-02    1.0245610156e+05
    3.2930891961e-02    1.0245083594e+05
    3.2945290208e-02    1.0244750000e+05
    3.2959677279e-02    1.0244447656e+05
    3.2974056900e-02    1.0244353906e+05
    3.2988425344e-02    1.0244697656e+05
    3.3002786338e-02    1.0244814844e+05
    3.3017136157e-02    1.0244721875e+05
    3.3031478524e-02    1.0244163281e+05
    3.3045809716e-02    1.0244063281e+05
    3.3060129732e-02    1.0243960156e+05
    3.3074442297e-02    1.0244117969e+05
    3.3088747412e-02    1.0243585156e+05
    3.3103041351e-02    1.0243539844e+05
    3.3117324114e-02    1.0243675000e+05
    3.3131599426e-02    1.0243880469e+05
    3.3145863563e-02    1.0243807031e+05
    3.3160120249e-02    1.0243741406e+05
    3.3174365759e-02    1.0243677344e+05
    3.3188603818e-02    1.0243610156e+05
    3.3202830702e-02    1.0243482031e+05
    3.3217050135e-02    1.0243408594e+05
    3.3231258392e-02    1.0243508594e+05
    3.3245459199e-02    1.0243399219e+05
    3.3259648830e-02    1.0243089844e+05
    3.3273831010e-02    1.0243037500e+05
    3.3288005739e-02    1.0242953906e+05
    3.3302169293e-02    1.0242937500e+05
    3.3316325396e-02    1.0243335156e+05
    3.3330474049e-02    1.0243366406e+05
    3.3344611526e-02    1.0243087500e+05
    3.3358741552e-02    1.0242806250e+05
    3.3372864127e-02    1.0242722656e+05
    3.3386975527e-02    1.0242672656e+05
    3.3401079476e-02    1.0242622656e+05
    3.3415172249e-02    1.0242807031e+05
    3.3429257572e-02    1.0242992969e+05
    3.3443335444e-02    1.0242953906e+05
    3.3457405865e-02    1.0242946875e+05
    3.3471468836e-02    1.0242896094e+05
    3.3485524356e-02    1.0242852344e+05
    3.3499568701e-02    1.0242840625e+05
    3.3513605595e-02    1.0242808594e+05
    3.3527631313e-02    1.0242809375e+05
    3.3541653305e-02    1.0242816406e+05
    3.3555664122e-02    1.0242824219e+05
    3.3569667488e-02    1.0242892969e+05
    3.3583663404e-02    1.0242953906e+05
    3.3597648144e-02    1.0242907031e+05
    3.3611625433e-02    1.0242974219e+05
    3.3625595272e-02    1.0242977344e+05
    3.3639557660e-02    1.0242975000e+05
    3.3653512597e-02    1.0242975000e+05
    3.3667460084e-02    1.0242972656e+05
    3.3681396395e-02    1.0242971094e+05
    3.3695328981e-02    1.0242969531e+05
    3.3709254116e-02    1.0242908594e+05
    3.3723168075e-02    1.0242908594e+05
    3.3737078309e-02    1.0242908594e+05
    3.3750977367e-02    1.0242858594e+05
    3.3764872700e-02    1.0242857031e+05
    3.3778760582e-02    1.0242889844e+05
    3.3792637289e-02    1.0242887500e+05
    3.3806510270e-02    1.0242877344e+05
    3.3820372075e-02    1.0242861719e+05
    3.3834230155e-02    1.0242834375e+05
    3.3848077059e-02    1.0242765625e+05
    3.3861916512e-02    1.0242714844e+05
    3.3875752240e-02    1.0242686719e+05
    3.3889576793e-02    1.0242567969e+05
    3.3903393894e-02    1.0242305469e+05
    3.3917203546e-02    1.0242241406e+05
    3.3931009471e-02    1.0242119531e+05
    3.3944804221e-02    1.0242305469e+05
    3.3958595246e-02    1.0242239844e+05
    3.3972378820e-02    1.0242203906e+05
    3.3986151218e-02    1.0242116406e+05
    3.3999919891e-02    1.0242060156e+05
    3.4013681114e-02    1.0242033594e+05
    3.4027434886e-02    1.0241980469e+05
    3.4041177481e-02    1.0241878906e+05
    3.4054916352e-02    1.0241871875e+05
    3.4068647772e-02    1.0241875000e+05
    3.4082375467e-02    1.0241860156e+05
    3.4096091986e-02    1.0241853906e+05
    3.4109804779e-02    1.0241852344e+05
    3.4123510122e-02    1.0241880469e+05
    3.4137208015e-02    1.0241872656e+05
    3.4150898457e-02    1.0241835156e+05
    3.4164581448e-02    1.0241846094e+05
    3.4178260714e-02    1.0241825781e+05
    3.4191932529e-02    1.0241791406e+05
    3.4205596894e-02    1.0241746875e+05
    3.4219253808e-02    1.0241260156e+05
    3.4232903272e-02    1.0241160156e+05
    3.4246545285e-02    1.0241321094e+05
    3.4260183573e-02    1.0241216406e+05
    3.4273810685e-02    1.0240907031e+05
    3.4287434071e-02    1.0240802344e+05
    3.4301050007e-02    1.0241164844e+05
    3.4314658493e-02    1.0241099219e+05
    3.4328263253e-02    1.0240978906e+05
    3.4341860563e-02    1.0240972656e+05
    3.4355450422e-02    1.0240858594e+05
    3.4369036555e-02    1.0240860156e+05
    3.4382611513e-02    1.0240808594e+05
    3.4396182746e-02    1.0240735156e+05
    3.4409742802e-02    1.0240660156e+05
    3.4423299134e-02    1.0240618750e+05
    3.4436848015e-02    1.0240609375e+05
    3.4450393170e-02    1.0240572656e+05
    3.4463927150e-02    1.0240567969e+05
    3.4477461129e-02    1.0240537500e+05
    3.4490987659e-02    1.0240510156e+05
    3.4504506737e-02    1.0240546875e+05
    3.4518022090e-02    1.0240521094e+05
    3.4531529993e-02    1.0240494531e+05
    3.4545030445e-02    1.0240432031e+05
    3.4558523446e-02    1.0240421094e+05
    3.4572008997e-02    1.0240318750e+05
    3.4585487098e-02    1.0240266406e+05
    3.4598957747e-02    1.0240205469e+05
    3.4612424672e-02    1.0240139844e+05
    3.4625884145e-02    1.0240016406e+05
    3.4639336169e-02    1.0239941406e+05
    3.4652780741e-02    1.0239458594e+05
    3.4666225314e-02    1.0239143750e+05
    3.4679658711e-02    1.0239032031e+05
    3.4693088382e-02    1.0239413281e+05
    3.4706510603e-02    1.0239608594e+05
    3.4719929099e-02    1.0239541406e+05
    3.4733340144e-02    1.0239506250e+05
    3.4746743739e-02    1.0239000000e+05
    3.4760143608e-02    1.0239128125e+05
    3.4773536026e-02    1.0239281250e+05
    3.4786924720e-02    1.0239203906e+05
    3.4800305963e-02    1.0238638281e+05
    3.4813679755e-02    1.0239038281e+05
    3.4827046096e-02    1.0238703125e+05
    3.4840408713e-02    1.0238367969e+05
    3.4853763878e-02    1.0238321875e+05
    3.4867111593e-02    1.0238475000e+05
    3.4880455583e-02    1.0238397656e+05
    3.4893795848e-02    1.0238099219e+05
    3.4907124937e-02    1.0238289844e+05
    3.4920454025e-02    1.0238027344e+05
    3.4933775663e-02    1.0238450781e+05
    3.4947093576e-02    1.0238389844e+05
    3.4960404038e-02    1.0237897656e+05
    3.4973710775e-02    1.0238033594e+05
    3.4987010062e-02    1.0237996875e+05
endcurve
