Curveplot
LS-DYNA keyword deck by LS-PrePost                          
Time
Pressure
Defined Connection
Pressure @ 37 #pts=1745
* Minval=     9.9604335938e+04 at time=         0.0147999795
* Maxval=     1.7063759375e+05 at time=         0.0063644466
    0.0000000000e+00    9.9998125000e+04
    3.3812357287e-05    9.9998125000e+04
    6.1326652940e-05    9.9998875000e+04
    8.9102875791e-05    9.9997789062e+04
    1.1682785407e-04    9.9997882812e+04
    1.4461828687e-04    9.9999289062e+04
    1.7236733402e-04    9.9999812500e+04
    2.0016246708e-04    1.0000899219e+05
    2.2795486439e-04    1.0000039844e+05
    2.5574557367e-04    1.0000036719e+05
    2.8353667585e-04    1.0000010156e+05
    3.1133697485e-04    9.9991164062e+04
    3.3912662184e-04    9.9999570312e+04
    3.6691734567e-04    9.9999476562e+04
    3.9470891352e-04    1.0000025000e+05
    4.2249175021e-04    1.0001050781e+05
    4.5027161832e-04    1.0000185156e+05
    4.7804549104e-04    1.0000116406e+05
    5.0581363030e-04    9.9991718750e+04
    5.3357944125e-04    1.0000046094e+05
    5.6134146871e-04    9.9999820312e+04
    5.8909942163e-04    1.0000027344e+05
    6.1685312539e-04    1.0000030469e+05
    6.4460188150e-04    1.0000085156e+05
    6.7234638846e-04    1.0000146094e+05
    7.0008635521e-04    1.0000105469e+05
    7.2782178177e-04    1.0000031250e+05
    7.5555208605e-04    1.0000121875e+05
    7.8327720985e-04    1.0000102344e+05
    8.1099680392e-04    1.0000184375e+05
    8.3871174138e-04    1.0000135156e+05
    8.6642213864e-04    9.9994312500e+04
    8.9412782108e-04    9.9999726562e+04
    9.2182843946e-04    9.9999632812e+04
    9.4952445943e-04    1.0000363281e+05
    9.7721535712e-04    1.0000171094e+05
    1.0049008997e-03    9.9993023438e+04
    1.0325826006e-03    9.9994750000e+04
    1.0602590628e-03    1.0001019531e+05
    1.0879321489e-03    1.0001146875e+05
    1.1155996472e-03    1.0000746094e+05
    1.1432634201e-03    9.9993625000e+04
    1.1709230021e-03    9.9982257812e+04
    1.1985785095e-03    9.9989945312e+04
    1.2262313394e-03    9.9999710938e+04
    1.2538790470e-03    1.0000974219e+05
    1.2815232622e-03    1.0001138281e+05
    1.3091630535e-03    1.0000328125e+05
    1.3368004002e-03    9.9996679688e+04
    1.3644339051e-03    1.0000583594e+05
    1.3920635683e-03    1.0002211719e+05
    1.4196902048e-03    1.0005282031e+05
    1.4473132323e-03    1.0011085156e+05
    1.4749332331e-03    1.0019594531e+05
    1.5025498578e-03    1.0032592969e+05
    1.5301633393e-03    1.0052189844e+05
    1.5577742597e-03    1.0077250000e+05
    1.5853822697e-03    1.0108830469e+05
    1.6129877185e-03    1.0145710156e+05
    1.6405890929e-03    1.0186552344e+05
    1.6681876732e-03    1.0225884375e+05
    1.6957829939e-03    1.0260035156e+05
    1.7233766848e-03    1.0287300781e+05
    1.7509678146e-03    1.0305086719e+05
    1.7785291420e-03    1.0313728906e+05
    1.8060547300e-03    1.0313528125e+05
    1.8335470231e-03    1.0305346094e+05
    1.8610082334e-03    1.0292194531e+05
    1.8884401070e-03    1.0274653906e+05
    1.9158447394e-03    1.0257024219e+05
    1.9432241097e-03    1.0241566406e+05
    1.9705800805e-03    1.0230222656e+05
    1.9979148638e-03    1.0223222656e+05
    2.0252298564e-03    1.0219785156e+05
    2.0525271539e-03    1.0221266406e+05
    2.0798076876e-03    1.0226397656e+05
    2.1070730872e-03    1.0234078125e+05
    2.1343247499e-03    1.0242111719e+05
    2.1615643054e-03    1.0248634375e+05
    2.1887931507e-03    1.0252433594e+05
    2.2160108201e-03    1.0254265625e+05
    2.2432196420e-03    1.0253288281e+05
    2.2704207804e-03    1.0251689844e+05
    2.2976147011e-03    1.0248103906e+05
    2.3248014040e-03    1.0244158594e+05
    2.3519827519e-03    1.0241287500e+05
    2.3791582789e-03    1.0239721875e+05
    2.4063293822e-03    1.0238871094e+05
    2.4334960617e-03    1.0238642969e+05
    2.4606597144e-03    1.0239163281e+05
    2.4878205732e-03    1.0240803906e+05
    2.5149781723e-03    1.0242575000e+05
    2.5421329774e-03    1.0244287500e+05
    2.5692859199e-03    1.0245372656e+05
    2.5964374654e-03    1.0245180469e+05
    2.6235871483e-03    1.0244434375e+05
    2.6507352013e-03    1.0243668750e+05
    2.6778825559e-03    1.0243428906e+05
    2.7050296776e-03    1.0242222656e+05
    2.7321761008e-03    1.0241278906e+05
    2.7593218256e-03    1.0240885156e+05
    2.7864677832e-03    1.0240936719e+05
    2.8136142064e-03    1.0242156250e+05
    2.8407603968e-03    1.0243457031e+05
    2.8679079842e-03    1.0245088281e+05
    2.8950548731e-03    1.0246589844e+05
    2.9222022276e-03    1.0248889844e+05
    2.9493502807e-03    1.0252262500e+05
    2.9764990322e-03    1.0257339844e+05
    3.0036487151e-03    1.0263687500e+05
    3.0307997949e-03    1.0272517969e+05
    3.0579508748e-03    1.0282107031e+05
    3.0851035845e-03    1.0291464844e+05
    3.1122572254e-03    1.0301380469e+05
    3.1394117977e-03    1.0312017969e+05
    3.1665677670e-03    1.0320253906e+05
    3.1937246677e-03    1.0325825000e+05
    3.2208829653e-03    1.0330146875e+05
    3.2480424270e-03    1.0331331250e+05
    3.2752046827e-03    1.0329574219e+05
    3.2952371985e-03    1.0325621094e+05
    3.3145032357e-03    1.0322174219e+05
    3.3336398192e-03    1.0318257031e+05
    3.3528339118e-03    1.0314703125e+05
    3.3720366191e-03    1.0310075781e+05
    3.3912549261e-03    1.0305861719e+05
    3.4104890656e-03    1.0301428906e+05
    3.4297339153e-03    1.0297394531e+05
    3.4486323129e-03    1.0293033594e+05
    3.4671388566e-03    1.0288511719e+05
    3.4854323603e-03    1.0283136719e+05
    3.5036695190e-03    1.0277119531e+05
    3.5219141282e-03    1.0270627344e+05
    3.5401545465e-03    1.0263247656e+05
    3.5583588760e-03    1.0256439844e+05
    3.5765271168e-03    1.0249339844e+05
    3.5946895368e-03    1.0242914844e+05
    3.6139658187e-03    1.0237221094e+05
    3.6330535077e-03    1.0232460156e+05
    3.6521453876e-03    1.0228328906e+05
    3.6699753255e-03    1.0225189844e+05
    3.6875614896e-03    1.0223256250e+05
    3.7050142419e-03    1.0221577344e+05
    3.7224807311e-03    1.0219671094e+05
    3.7400643341e-03    1.0217963281e+05
    3.7577797193e-03    1.0216903906e+05
    3.7755726371e-03    1.0215137500e+05
    3.7933769636e-03    1.0214389844e+05
    3.8111612666e-03    1.0213402344e+05
    3.8289318327e-03    1.0212616406e+05
    3.8467168342e-03    1.0212460156e+05
    3.8645383902e-03    1.0212012500e+05
    3.8824023213e-03    1.0211669531e+05
    3.9002960548e-03    1.0210438281e+05
    3.9182156324e-03    1.0209219531e+05
    3.9361710660e-03    1.0207462500e+05
    3.9541716687e-03    1.0205721094e+05
    3.9733103476e-03    1.0203491406e+05
    3.9924201556e-03    1.0201255469e+05
    4.0104058571e-03    1.0199452344e+05
    4.0284004062e-03    1.0198703906e+05
    4.0464363992e-03    1.0197624219e+05
    4.0656095371e-03    1.0197382031e+05
    4.0847789496e-03    1.0196796094e+05
    4.1039343923e-03    1.0196081250e+05
    4.1219722480e-03    1.0195818750e+05
    4.1400394402e-03    1.0194897656e+05
    4.1591953486e-03    1.0193747656e+05
    4.1784178466e-03    1.0192897656e+05
    4.1976389475e-03    1.0192294531e+05
    4.2168586515e-03    1.0191675000e+05
    4.2360713705e-03    1.0191121875e+05
    4.2552771047e-03    1.0191056250e+05
    4.2744791135e-03    1.0190024219e+05
    4.2936825193e-03    1.0188696094e+05
    4.3128933758e-03    1.0186728906e+05
    4.3321144767e-03    1.0184385156e+05
    4.3513495475e-03    1.0182868750e+05
    4.3705995195e-03    1.0181112500e+05
    4.3898657896e-03    1.0179202344e+05
    4.4091497548e-03    1.0177387500e+05
    4.4284537435e-03    1.0175309375e+05
    4.4477786869e-03    1.0172224219e+05
    4.4671236537e-03    1.0167647656e+05
    4.4864914380e-03    1.0162678125e+05
    4.5058806427e-03    1.0156614844e+05
    4.5252908021e-03    1.0148618750e+05
    4.5447219163e-03    1.0140765625e+05
    4.5641721226e-03    1.0132160156e+05
    4.5836409554e-03    1.0121836719e+05
    4.6031279489e-03    1.0110783594e+05
    4.6226321720e-03    1.0098728906e+05
    4.6421540901e-03    1.0086140625e+05
    4.6616927721e-03    1.0073735156e+05
    4.6812482178e-03    1.0061255469e+05
    4.7008208930e-03    1.0049446094e+05
    4.7204112634e-03    1.0039515625e+05
    4.7400193289e-03    1.0030727344e+05
    4.7596455552e-03    1.0023572656e+05
    4.7792894766e-03    1.0018246094e+05
    4.7989510931e-03    1.0014793750e+05
    4.8186304048e-03    1.0014227344e+05
    4.8383255489e-03    1.0015421094e+05
    4.8580355942e-03    1.0018314844e+05
    4.8777610064e-03    1.0023241406e+05
    4.8975008540e-03    1.0029153906e+05
    4.9172551371e-03    1.0035371094e+05
    4.9370229244e-03    1.0041650000e+05
    4.9568060786e-03    1.0047302344e+05
    4.9766036682e-03    1.0052333594e+05
    4.9964170903e-03    1.0057250781e+05
    5.0162458792e-03    1.0060791406e+05
    5.0360900350e-03    1.0063960156e+05
    5.0559476949e-03    1.0066350781e+05
    5.0758207217e-03    1.0067768750e+05
    5.0957072526e-03    1.0068371875e+05
    5.1156077534e-03    1.0068592969e+05
    5.1355226897e-03    1.0067497656e+05
    5.1554525271e-03    1.0065547656e+05
    5.1753963344e-03    1.0062985156e+05
    5.1953555085e-03    1.0060996094e+05
    5.2153295837e-03    1.0059465625e+05
    5.2353194915e-03    1.0058264844e+05
    5.2553247660e-03    1.0057708594e+05
    5.2753463387e-03    1.0057414844e+05
    5.2953832783e-03    1.0057469531e+05
    5.3154369816e-03    1.0057505469e+05
    5.3355065174e-03    1.0057977344e+05
    5.3555918857e-03    1.0058816406e+05
    5.3756926209e-03    1.0059871094e+05
    5.3958082572e-03    1.0061422656e+05
    5.4159392603e-03    1.0063085156e+05
    5.4360851645e-03    1.0064035156e+05
    5.4562464356e-03    1.0064921094e+05
    5.4764230736e-03    1.0065471094e+05
    5.4966160096e-03    1.0066406250e+05
    5.5168238468e-03    1.0066775781e+05
    5.5370470509e-03    1.0067094531e+05
    5.5572865531e-03    1.0067421875e+05
    5.5775423534e-03    1.0066734375e+05
    5.5978130549e-03    1.0066903906e+05
    5.6181000546e-03    1.0067119531e+05
    5.6384028867e-03    1.0067278906e+05
    5.6587206200e-03    1.0067443750e+05
    5.6790532544e-03    1.0068041406e+05
    5.6994007900e-03    1.0068300000e+05
    5.7197632268e-03    1.0068149219e+05
    5.7401410304e-03    1.0068506250e+05
    5.7605337352e-03    1.0068896094e+05
    5.7809422724e-03    1.0069027344e+05
    5.8013652451e-03    1.0069553906e+05
    5.8218040504e-03    1.0069859375e+05
    5.8422577567e-03    1.0070216406e+05
    5.8627268299e-03    1.0071060156e+05
    5.8832112700e-03    1.0071667969e+05
    5.9037101455e-03    1.0072341406e+05
    5.9242248535e-03    1.0072738281e+05
    5.9447535314e-03    1.0072891406e+05
    5.9641525149e-03    1.0073592969e+05
    5.9830932878e-03    1.0074021875e+05
    6.0020405799e-03    1.0074486719e+05
    6.0210367665e-03    1.0075864844e+05
    6.0400799848e-03    1.0077408594e+05
    6.0591096990e-03    1.0079853906e+05
    6.0781282373e-03    1.0084037500e+05
    6.0972142965e-03    1.0092334375e+05
    6.1162756756e-03    1.0110563281e+05
    6.1353649944e-03    1.0149366406e+05
    6.1544459313e-03    1.0230447656e+05
    6.1734300107e-03    1.0395538281e+05
    6.1924448237e-03    1.0702565625e+05
    6.2115197070e-03    1.1221494531e+05
    6.2306127511e-03    1.2001097656e+05
    6.2497169711e-03    1.3023897656e+05
    6.2688281760e-03    1.4177587500e+05
    6.2879407778e-03    1.5286503125e+05
    6.3070552424e-03    1.6174196875e+05
    6.3261794858e-03    1.6751896875e+05
    6.3453060575e-03    1.7024195312e+05
    6.3644465990e-03    1.7063759375e+05
    6.3835908659e-03    1.6967420312e+05
    6.4027444459e-03    1.6814959375e+05
    6.4219115302e-03    1.6664468750e+05
    6.4410855994e-03    1.6533281250e+05
    6.4602680504e-03    1.6414604688e+05
    6.4794607460e-03    1.6292493750e+05
    6.4986641519e-03    1.6154489062e+05
    6.5178787336e-03    1.5997823438e+05
    6.5371058881e-03    1.5823754688e+05
    6.5563363023e-03    1.5639284375e+05
    6.5755699761e-03    1.5453375000e+05
    6.5948092379e-03    1.5270532812e+05
    6.6140629351e-03    1.5097018750e+05
    6.6333152354e-03    1.4932418750e+05
    6.6525745206e-03    1.4775720312e+05
    6.6718445159e-03    1.4623653125e+05
    6.6911154427e-03    1.4475837500e+05
    6.7104012705e-03    1.4330409375e+05
    6.7296870984e-03    1.4188657812e+05
    6.7489854991e-03    1.4052550000e+05
    6.7682852969e-03    1.3921921875e+05
    6.7875892855e-03    1.3799278125e+05
    6.8069072440e-03    1.3685101562e+05
    6.8262196146e-03    1.3577664062e+05
    6.8455408327e-03    1.3478257812e+05
    6.8648783490e-03    1.3384470312e+05
    6.8842126057e-03    1.3296101562e+05
    6.9035501219e-03    1.3213506250e+05
    6.9228983484e-03    1.3135198438e+05
    6.9422605447e-03    1.3061400781e+05
    6.9616222754e-03    1.2992275781e+05
    6.9809844717e-03    1.2927738281e+05
    7.0003494620e-03    1.2866753906e+05
    7.0197195746e-03    1.2809183594e+05
    7.0390999317e-03    1.2754647656e+05
    7.0584909990e-03    1.2702981250e+05
    7.0778946392e-03    1.2652787500e+05
    7.0973108523e-03    1.2604966406e+05
    7.1167377755e-03    1.2557730469e+05
    7.1361698210e-03    1.2512475781e+05
    7.1556069888e-03    1.2468928906e+05
    7.1750483476e-03    1.2426538281e+05
    7.1944966912e-03    1.2386350000e+05
    7.2139529511e-03    1.2347733594e+05
    7.2334166616e-03    1.2310275000e+05
    7.2528840974e-03    1.2274221094e+05
    7.2723543271e-03    1.2238666406e+05
    7.2918278165e-03    1.2203746875e+05
    7.3113050312e-03    1.2168606250e+05
    7.3307845742e-03    1.2133883594e+05
    7.3502692394e-03    1.2099015625e+05
    7.3697618209e-03    1.2063538281e+05
    7.3892641813e-03    1.2028164844e+05
    7.4087800458e-03    1.1992803125e+05
    7.4282912537e-03    1.1957590625e+05
    7.4477996677e-03    1.1922053906e+05
    7.4673094787e-03    1.1887355469e+05
    7.4868267402e-03    1.1853010156e+05
    7.5063589029e-03    1.1818153906e+05
    7.5258887373e-03    1.1784321094e+05
    7.5454111211e-03    1.1751921875e+05
    7.5649353676e-03    1.1720833594e+05
    7.5844703242e-03    1.1691702344e+05
    7.6040057465e-03    1.1665033594e+05
    7.6235276647e-03    1.1640518750e+05
    7.6430505142e-03    1.1618435156e+05
    7.6625877991e-03    1.1598547656e+05
    7.6821087860e-03    1.1581168750e+05
    7.7016241848e-03    1.1566583594e+05
    7.7211544849e-03    1.1553203125e+05
    7.7406810597e-03    1.1541684375e+05
    7.7602043748e-03    1.1532796094e+05
    7.7797495760e-03    1.1525140625e+05
    7.7992938459e-03    1.1519366406e+05
    7.8188432381e-03    1.1514917969e+05
    7.8384252265e-03    1.1511814844e+05
    7.8580006957e-03    1.1509109375e+05
    7.8775910661e-03    1.1507603125e+05
    7.8972103074e-03    1.1505503906e+05
    7.9168286175e-03    1.1503268750e+05
    7.9364804551e-03    1.1501011719e+05
    7.9561360180e-03    1.1496416406e+05
    7.9758102074e-03    1.1491024219e+05
    7.9955114052e-03    1.1482863281e+05
    8.0152126029e-03    1.1472756250e+05
    8.0349491909e-03    1.1460183594e+05
    8.0546662211e-03    1.1445152344e+05
    8.0743944272e-03    1.1428780469e+05
    8.0941170454e-03    1.1410746094e+05
    8.1138620153e-03    1.1392225000e+05
    8.1336386502e-03    1.1373493750e+05
    8.1534720957e-03    1.1354928125e+05
    8.1733558327e-03    1.1336497656e+05
    8.1932730973e-03    1.1318778906e+05
    8.2132071257e-03    1.1302503906e+05
    8.2330890000e-03    1.1287753906e+05
    8.2529615611e-03    1.1274088281e+05
    8.2727763802e-03    1.1262450000e+05
    8.2926023751e-03    1.1253353906e+05
    8.3124246448e-03    1.1245378906e+05
    8.3322748542e-03    1.1238621094e+05
    8.3521194756e-03    1.1233310156e+05
    8.3719678223e-03    1.1229253906e+05
    8.3917891607e-03    1.1225885156e+05
    8.4116021171e-03    1.1223807031e+05
    8.4314141423e-03    1.1222474219e+05
    8.4512168542e-03    1.1221321094e+05
    8.4710381925e-03    1.1220822656e+05
    8.4908353165e-03    1.1219158594e+05
    8.5106678307e-03    1.1216961719e+05
    8.5304882377e-03    1.1213443750e+05
    8.5503393784e-03    1.1209353125e+05
    8.5699046031e-03    1.1203771875e+05
    8.5892248899e-03    1.1197287500e+05
    8.6083402857e-03    1.1190318750e+05
    8.6272666231e-03    1.1182133594e+05
    8.6460309103e-03    1.1173399219e+05
    8.6646731943e-03    1.1165184375e+05
    8.6832325906e-03    1.1156674219e+05
    8.7017398328e-03    1.1149288281e+05
    8.7202098221e-03    1.1141589844e+05
    8.7386453524e-03    1.1134621094e+05
    8.7570473552e-03    1.1128243750e+05
    8.7753897533e-03    1.1122527344e+05
    8.7936492637e-03    1.1117582031e+05
    8.8118780404e-03    1.1113878906e+05
    8.8300397620e-03    1.1110791406e+05
    8.8481390849e-03    1.1108271094e+05
    8.8662039489e-03    1.1106221094e+05
    8.8842641562e-03    1.1104186719e+05
    8.9023411274e-03    1.1101782031e+05
    8.9204348624e-03    1.1099075000e+05
    8.9385388419e-03    1.1096078906e+05
    8.9566456154e-03    1.1092436719e+05
    8.9747514576e-03    1.1088081250e+05
    8.9928600937e-03    1.1083271875e+05
    9.0109808370e-03    1.1078085156e+05
    9.0291155502e-03    1.1072763281e+05
    9.0472688898e-03    1.1067412500e+05
    9.0654399246e-03    1.1061471094e+05
    9.0836230665e-03    1.1055947656e+05
    9.1018192470e-03    1.1050610156e+05
    9.1200266033e-03    1.1044875781e+05
    9.1382460669e-03    1.1038886719e+05
    9.1564757749e-03    1.1032506250e+05
    9.1747231781e-03    1.1025818750e+05
    9.1929892078e-03    1.1018717969e+05
    9.2112747952e-03    1.1010747656e+05
    9.2295790091e-03    1.1003514844e+05
    9.2479009181e-03    1.0996077344e+05
    9.2662386596e-03    1.0988184375e+05
    9.2845931649e-03    1.0980611719e+05
    9.3029672280e-03    1.0972278906e+05
    9.3213599175e-03    1.0964265625e+05
    9.3397712335e-03    1.0955750781e+05
    9.3582011759e-03    1.0947124219e+05
    9.3766497448e-03    1.0937950000e+05
    9.3951150775e-03    1.0929100000e+05
    9.4135999680e-03    1.0920130469e+05
    9.4321016222e-03    1.0911561719e+05
    9.4506228343e-03    1.0902978906e+05
    9.4691645354e-03    1.0894889844e+05
    9.4877239317e-03    1.0887206250e+05
    9.5063010231e-03    1.0880308594e+05
    9.5248948783e-03    1.0873293750e+05
    9.5435054973e-03    1.0866987500e+05
    9.5621328801e-03    1.0860518750e+05
    9.5807760954e-03    1.0854377344e+05
    9.5994332805e-03    1.0848135156e+05
    9.6181081608e-03    1.0842434375e+05
    9.6367979422e-03    1.0836852344e+05
    9.6555035561e-03    1.0830858594e+05
    9.6742231399e-03    1.0825455469e+05
    9.6929576248e-03    1.0819384375e+05
    9.7117051482e-03    1.0813574219e+05
    9.7304685041e-03    1.0806997656e+05
    9.7492448986e-03    1.0800153906e+05
    9.7680361941e-03    1.0793685156e+05
    9.7868405282e-03    1.0787162500e+05
    9.8056588322e-03    1.0780064844e+05
    9.8244920373e-03    1.0773447656e+05
    9.8433364183e-03    1.0765853906e+05
    9.8621929064e-03    1.0758697656e+05
    9.8810633644e-03    1.0751483594e+05
    9.8999459296e-03    1.0743800000e+05
    9.9188406020e-03    1.0737136719e+05
    9.9377483130e-03    1.0729992969e+05
    9.9566690624e-03    1.0723436719e+05
    9.9756028503e-03    1.0717605469e+05
    9.9945487455e-03    1.0711891406e+05
    1.0013507679e-02    1.0706381250e+05
    1.0032479651e-02    1.0700964844e+05
    1.0051463731e-02    1.0695781250e+05
    1.0070459917e-02    1.0690972656e+05
    1.0089469142e-02    1.0685814844e+05
    1.0108492337e-02    1.0681513281e+05
    1.0127528571e-02    1.0676710156e+05
    1.0146577843e-02    1.0672541406e+05
    1.0165639222e-02    1.0667878125e+05
    1.0184712708e-02    1.0663187500e+05
    1.0203798302e-02    1.0658339844e+05
    1.0222896002e-02    1.0653364844e+05
    1.0242006741e-02    1.0647818750e+05
    1.0261129588e-02    1.0642180469e+05
    1.0280264542e-02    1.0636884375e+05
    1.0299413465e-02    1.0630855469e+05
    1.0318575427e-02    1.0624139844e+05
    1.0337748565e-02    1.0616741406e+05
    1.0356934741e-02    1.0608502344e+05
    1.0376133956e-02    1.0599046094e+05
    1.0395346209e-02    1.0589547656e+05
    1.0414571501e-02    1.0578697656e+05
    1.0433809832e-02    1.0567396094e+05
    1.0453061201e-02    1.0555715625e+05
    1.0472324677e-02    1.0542864844e+05
    1.0491601191e-02    1.0529821875e+05
    1.0510892607e-02    1.0516578906e+05
    1.0530196130e-02    1.0502844531e+05
    1.0549513623e-02    1.0489710156e+05
    1.0568842292e-02    1.0476378906e+05
    1.0588183999e-02    1.0464246094e+05
    1.0607538745e-02    1.0451883594e+05
    1.0626907460e-02    1.0439978906e+05
    1.0646289214e-02    1.0428415625e+05
    1.0665684007e-02    1.0417027344e+05
    1.0685092770e-02    1.0406946875e+05
    1.0704516433e-02    1.0396397656e+05
    1.0723951273e-02    1.0386250000e+05
    1.0743400082e-02    1.0376157031e+05
    1.0762862861e-02    1.0366071094e+05
    1.0782338679e-02    1.0355096094e+05
    1.0801829398e-02    1.0344032031e+05
    1.0821334086e-02    1.0332052344e+05
    1.0840852745e-02    1.0319549219e+05
    1.0860386305e-02    1.0306566406e+05
    1.0879932903e-02    1.0293039844e+05
    1.0899493471e-02    1.0279543750e+05
    1.0919069871e-02    1.0265819531e+05
    1.0938662104e-02    1.0252228906e+05
    1.0958270170e-02    1.0240053906e+05
    1.0977892205e-02    1.0228137500e+05
    1.0997531936e-02    1.0217643750e+05
    1.1017187499e-02    1.0208628906e+05
    1.1036860757e-02    1.0201207031e+05
    1.1056551710e-02    1.0194500781e+05
    1.1076259427e-02    1.0188633594e+05
    1.1095987633e-02    1.0184793750e+05
    1.1115733534e-02    1.0181763281e+05
    1.1135498993e-02    1.0179378906e+05
    1.1155283079e-02    1.0177425000e+05
    1.1175086722e-02    1.0176214844e+05
    1.1194912717e-02    1.0176243750e+05
    1.1214758269e-02    1.0176996094e+05
    1.1234625243e-02    1.0179397656e+05
    1.1254511774e-02    1.0181987500e+05
    1.1274418794e-02    1.0185033594e+05
    1.1294347234e-02    1.0187891406e+05
    1.1314296164e-02    1.0190091406e+05
    1.1334266514e-02    1.0192747656e+05
    1.1354257353e-02    1.0194603906e+05
    1.1374268681e-02    1.0196018750e+05
    1.1394302361e-02    1.0196832031e+05
    1.1414355598e-02    1.0197508594e+05
    1.1434430256e-02    1.0197125781e+05
    1.1454525404e-02    1.0195999219e+05
    1.1474640109e-02    1.0194053906e+05
    1.1494777165e-02    1.0191066406e+05
    1.1514934711e-02    1.0187817969e+05
    1.1535113677e-02    1.0184447656e+05
    1.1555313133e-02    1.0180396875e+05
    1.1575534008e-02    1.0176728125e+05
    1.1595774442e-02    1.0172803906e+05
    1.1616035365e-02    1.0168797656e+05
    1.1636316776e-02    1.0165107031e+05
    1.1656619608e-02    1.0162213281e+05
    1.1676942930e-02    1.0159321875e+05
    1.1697287671e-02    1.0156699219e+05
    1.1717652902e-02    1.0154033594e+05
    1.1738038622e-02    1.0152327344e+05
    1.1758443899e-02    1.0151282031e+05
    1.1778870597e-02    1.0150900000e+05
    1.1799318716e-02    1.0152296094e+05
    1.1819788255e-02    1.0154639844e+05
    1.1840280145e-02    1.0160544531e+05
    1.1860790662e-02    1.0170077344e+05
    1.1881321669e-02    1.0184542969e+05
    1.1901874095e-02    1.0206122656e+05
    1.1922447011e-02    1.0237214844e+05
    1.1943042278e-02    1.0279905469e+05
    1.1963658035e-02    1.0336685156e+05
    1.1984295212e-02    1.0409366406e+05
    1.2004952878e-02    1.0498225781e+05
    1.2025631964e-02    1.0602397656e+05
    1.2046331540e-02    1.0717858594e+05
    1.2067052536e-02    1.0839421875e+05
    1.2087795883e-02    1.0958903125e+05
    1.2108558789e-02    1.1067152344e+05
    1.2129344046e-02    1.1156566406e+05
    1.2150149792e-02    1.1220625781e+05
    1.2170976959e-02    1.1256287500e+05
    1.2191825546e-02    1.1263487500e+05
    1.2212695554e-02    1.1244114844e+05
    1.2233586982e-02    1.1202728906e+05
    1.2254500762e-02    1.1145396875e+05
    1.2275436893e-02    1.1077309375e+05
    1.2296394445e-02    1.1004912500e+05
    1.2317374349e-02    1.0931986719e+05
    1.2338375673e-02    1.0864555469e+05
    1.2359398417e-02    1.0804952344e+05
    1.2380442582e-02    1.0755932031e+05
    1.2401508167e-02    1.0716096875e+05
    1.2422595173e-02    1.0683321094e+05
    1.2443703599e-02    1.0653746875e+05
    1.2464834377e-02    1.0623152344e+05
    1.2485986575e-02    1.0588887500e+05
    1.2507158332e-02    1.0548208594e+05
    1.2528351508e-02    1.0502097656e+05
    1.2549565174e-02    1.0451341406e+05
    1.2570801191e-02    1.0397153125e+05
    1.2592058629e-02    1.0342481250e+05
    1.2613337487e-02    1.0289228125e+05
    1.2634636834e-02    1.0240286719e+05
    1.2655957602e-02    1.0196455469e+05
    1.2677297927e-02    1.0158890625e+05
    1.2698660605e-02    1.0127442969e+05
    1.2720043771e-02    1.0102300781e+05
    1.2741449289e-02    1.0081366406e+05
    1.2762876227e-02    1.0063686719e+05
    1.2784325518e-02    1.0048514844e+05
    1.2805794366e-02    1.0034571094e+05
    1.2827285565e-02    1.0022422656e+05
    1.2848797254e-02    1.0011821094e+05
    1.2870330364e-02    1.0002550781e+05
    1.2891885825e-02    9.9948070312e+04
    1.2913462706e-02    9.9889976562e+04
    1.2935061008e-02    9.9851382812e+04
    1.2956679799e-02    9.9834562500e+04
    1.2978320010e-02    9.9839929688e+04
    1.2999981642e-02    9.9857812500e+04
    1.3021663763e-02    9.9887695312e+04
    1.3043368235e-02    9.9916179688e+04
    1.3065092266e-02    9.9934062500e+04
    1.3086837716e-02    9.9938148438e+04
    1.3108605519e-02    9.9921414062e+04
    1.3130392879e-02    9.9884007812e+04
    1.3152201660e-02    9.9837351562e+04
    1.3174032792e-02    9.9783062500e+04
    1.3195885345e-02    9.9722335938e+04
    1.3217759319e-02    9.9675210938e+04
    1.3239653781e-02    9.9653468750e+04
    1.3261569664e-02    9.9661351562e+04
    1.3283506967e-02    9.9701289062e+04
    1.3305463828e-02    9.9767195312e+04
    1.3327440247e-02    9.9849593750e+04
    1.3349435292e-02    9.9943281250e+04
    1.3371448033e-02    1.0004027344e+05
    1.3393475674e-02    1.0012525781e+05
    1.3415516354e-02    1.0019516406e+05
    1.3437564485e-02    1.0024039844e+05
    1.3459613547e-02    1.0026515625e+05
    1.3481658883e-02    1.0026755469e+05
    1.3503690250e-02    1.0026264844e+05
    1.3525702059e-02    1.0026022656e+05
    1.3547683135e-02    1.0026124219e+05
    1.3569628820e-02    1.0027509375e+05
    1.3591531664e-02    1.0029678906e+05
    1.3613392599e-02    1.0032516406e+05
    1.3635210693e-02    1.0035218750e+05
    1.3656994328e-02    1.0037964844e+05
    1.3678749092e-02    1.0041485156e+05
    1.3700488023e-02    1.0043660156e+05
    1.3722228818e-02    1.0045638281e+05
    1.3743981719e-02    1.0047624219e+05
    1.3765762560e-02    1.0048606250e+05
    1.3787578791e-02    1.0049516406e+05
    1.3809437864e-02    1.0049436719e+05
    1.3831341639e-02    1.0050174219e+05
    1.3853288256e-02    1.0050396875e+05
    1.3875273056e-02    1.0051324219e+05
    1.3897285797e-02    1.0052365625e+05
    1.3919321820e-02    1.0053640625e+05
    1.3941374607e-02    1.0055550781e+05
    1.3963440433e-02    1.0057894531e+05
    1.3985517435e-02    1.0059903125e+05
    1.4007603750e-02    1.0062186719e+05
    1.4029704034e-02    1.0064474219e+05
    1.4051820152e-02    1.0065864844e+05
    1.4073957689e-02    1.0067644531e+05
    1.4096121304e-02    1.0068346094e+05
    1.4118315652e-02    1.0068821094e+05
    1.4140545391e-02    1.0068615625e+05
    1.4162814245e-02    1.0068103125e+05
    1.4185124077e-02    1.0066842969e+05
    1.4207473956e-02    1.0065680469e+05
    1.4229862019e-02    1.0063639844e+05
    1.4252286404e-02    1.0061165625e+05
    1.4274741523e-02    1.0058278906e+05
    1.4297228307e-02    1.0054472656e+05
    1.4319745824e-02    1.0050185156e+05
    1.4342290349e-02    1.0045964844e+05
    1.4364863746e-02    1.0040411719e+05
    1.4387467876e-02    1.0035421875e+05
    1.4410103671e-02    1.0029649219e+05
    1.4432771131e-02    1.0024566406e+05
    1.4455472119e-02    1.0018821875e+05
    1.4478209428e-02    1.0012453125e+05
    1.4500979334e-02    1.0006825781e+05
    1.4523783699e-02    1.0001639844e+05
    1.4546621591e-02    9.9967742188e+04
    1.4569494873e-02    9.9915148438e+04
    1.4592399821e-02    9.9867335938e+04
    1.4615339227e-02    9.9815031250e+04
    1.4638305642e-02    9.9776664062e+04
    1.4661304653e-02    9.9739914062e+04
    1.4684336260e-02    9.9709335938e+04
    1.4707398601e-02    9.9675820312e+04
    1.4730494469e-02    9.9652812500e+04
    1.4753622934e-02    9.9628875000e+04
    1.4776783995e-02    9.9611085938e+04
    1.4799979515e-02    9.9604335938e+04
    1.4823205769e-02    9.9605085938e+04
    1.4846466482e-02    9.9605570312e+04
    1.4869757928e-02    9.9607148438e+04
    1.4893081971e-02    9.9611460938e+04
    1.4916437678e-02    9.9619976562e+04
    1.4939822257e-02    9.9638406250e+04
    1.4963239431e-02    9.9659929688e+04
    1.4986685477e-02    9.9680570312e+04
    1.5010161325e-02    9.9709187500e+04
    1.5033668838e-02    9.9740093750e+04
    1.5057205223e-02    9.9765851562e+04
    1.5080772340e-02    9.9794210938e+04
    1.5104367398e-02    9.9825375000e+04
    1.5127992257e-02    9.9859742188e+04
    1.5151646920e-02    9.9897335938e+04
    1.5175330453e-02    9.9937476562e+04
    1.5199041925e-02    9.9973406250e+04
    1.5222782269e-02    1.0001131250e+05
    1.5246548690e-02    1.0005575781e+05
    1.5270343982e-02    1.0009758594e+05
    1.5294168144e-02    1.0013803125e+05
    1.5318016522e-02    1.0018461719e+05
    1.5341891907e-02    1.0022728125e+05
    1.5365792438e-02    1.0026402344e+05
    1.5389721841e-02    1.0030583594e+05
    1.5413676389e-02    1.0034660156e+05
    1.5437657945e-02    1.0038657031e+05
    1.5461664647e-02    1.0043318750e+05
    1.5485695563e-02    1.0048305469e+05
    1.5509752557e-02    1.0053605469e+05
    1.5533835627e-02    1.0059414844e+05
    1.5557944775e-02    1.0064574219e+05
    1.5582079068e-02    1.0070996094e+05
    1.5606240369e-02    1.0077700781e+05
    1.5630424023e-02    1.0084866406e+05
    1.5654634684e-02    1.0091696094e+05
    1.5678871423e-02    1.0098805469e+05
    1.5703132376e-02    1.0104917969e+05
    1.5727419406e-02    1.0110665625e+05
    1.5751728788e-02    1.0115961719e+05
    1.5776060522e-02    1.0120859375e+05
    1.5800418332e-02    1.0125003906e+05
    1.5824800357e-02    1.0128428906e+05
    1.5849204734e-02    1.0131646094e+05
    1.5873633325e-02    1.0134016406e+05
    1.5898084268e-02    1.0135931250e+05
    1.5922557563e-02    1.0138421875e+05
    1.5947058797e-02    1.0140713281e+05
    1.5971582383e-02    1.0143294531e+05
    1.5996130183e-02    1.0145708594e+05
    1.6020702198e-02    1.0148024219e+05
    1.6045298427e-02    1.0150749219e+05
    1.6069920734e-02    1.0153453906e+05
    1.6094569117e-02    1.0155827344e+05
    1.6119243577e-02    1.0158512500e+05
    1.6143942252e-02    1.0161074219e+05
    1.6168667004e-02    1.0162953906e+05
    1.6193419695e-02    1.0165046875e+05
    1.6218200326e-02    1.0165882031e+05
    1.6243007034e-02    1.0166471094e+05
    1.6267839819e-02    1.0167346875e+05
    1.6292702407e-02    1.0167958594e+05
    1.6317596659e-02    1.0168162500e+05
    1.6342513263e-02    1.0167936719e+05
    1.6367461532e-02    1.0167713281e+05
    1.6392435879e-02    1.0166665625e+05
    1.6417443752e-02    1.0166183594e+05
    1.6442479566e-02    1.0165033594e+05
    1.6467543319e-02    1.0164463281e+05
    1.6492636874e-02    1.0162691406e+05
    1.6517756507e-02    1.0161221094e+05
    1.6542907804e-02    1.0160156250e+05
    1.6568088904e-02    1.0159010156e+05
    1.6593271866e-02    1.0158441406e+05
    1.6618426889e-02    1.0158209375e+05
    1.6643559560e-02    1.0158060156e+05
    1.6668669879e-02    1.0158190625e+05
    1.6693757847e-02    1.0158659375e+05
    1.6718825325e-02    1.0160863281e+05
    1.6743874177e-02    1.0163215625e+05
    1.6768900678e-02    1.0165916406e+05
    1.6793908551e-02    1.0168697656e+05
    1.6818899661e-02    1.0171768750e+05
    1.6843874007e-02    1.0174972656e+05
    1.6868829727e-02    1.0178721094e+05
    1.6893770546e-02    1.0181800781e+05
    1.6918692738e-02    1.0184533594e+05
    1.6943598166e-02    1.0187363281e+05
    1.6968490556e-02    1.0190062500e+05
    1.6993366182e-02    1.0192806250e+05
    1.7018226907e-02    1.0194843750e+05
    1.7043072730e-02    1.0196997656e+05
    1.7067901790e-02    1.0198591406e+05
    1.7092714086e-02    1.0200096094e+05
    1.7117511481e-02    1.0201005469e+05
    1.7142292112e-02    1.0202710156e+05
    1.7167057842e-02    1.0204119531e+05
    1.7191808671e-02    1.0204996094e+05
    1.7216544598e-02    1.0205664844e+05
    1.7241263762e-02    1.0205534375e+05
    1.7265968025e-02    1.0205716406e+05
    1.7290659249e-02    1.0204664844e+05
    1.7315333709e-02    1.0204418750e+05
    1.7339993268e-02    1.0204352344e+05
    1.7364639789e-02    1.0203399219e+05
    1.7389267683e-02    1.0201691406e+05
    1.7413880676e-02    1.0200108594e+05
    1.7438478768e-02    1.0197614844e+05
    1.7463061959e-02    1.0195893750e+05
    1.7487626523e-02    1.0194182031e+05
    1.7512176186e-02    1.0191950000e+05
    1.7536709085e-02    1.0189496094e+05
    1.7561223358e-02    1.0186791406e+05
    1.7585720867e-02    1.0183335156e+05
    1.7610201612e-02    1.0179735156e+05
    1.7634663731e-02    1.0176819531e+05
    1.7659107223e-02    1.0174522656e+05
    1.7683532089e-02    1.0172357031e+05
    1.7707940191e-02    1.0170525000e+05
    1.7732329667e-02    1.0169441406e+05
    1.7756698653e-02    1.0170156250e+05
    1.7781050876e-02    1.0172500781e+05
    1.7805384472e-02    1.0177933594e+05
    1.7829699442e-02    1.0184421094e+05
    1.7853999510e-02    1.0193508594e+05
    1.7878280953e-02    1.0205464844e+05
    1.7902545631e-02    1.0219415625e+05
    1.7926793545e-02    1.0235862500e+05
    1.7951028422e-02    1.0253289844e+05
    1.7975246534e-02    1.0270878906e+05
    1.7999447882e-02    1.0288722656e+05
    1.8023636192e-02    1.0305235156e+05
    1.8047811463e-02    1.0319544531e+05
    1.8071975559e-02    1.0331721875e+05
    1.8096126616e-02    1.0340464844e+05
    1.8120266497e-02    1.0345224219e+05
    1.8144397065e-02    1.0345385156e+05
    1.8168520182e-02    1.0341297656e+05
    1.8192630261e-02    1.0332792969e+05
    1.8216732889e-02    1.0319385156e+05
    1.8240824342e-02    1.0302337500e+05
    1.8264908344e-02    1.0282002344e+05
    1.8288983032e-02    1.0259050000e+05
    1.8313048407e-02    1.0234728125e+05
    1.8337102607e-02    1.0210196094e+05
    1.8361147493e-02    1.0187053906e+05
    1.8385183066e-02    1.0165655469e+05
    1.8409207463e-02    1.0146840625e+05
    1.8433224410e-02    1.0131071875e+05
    1.8457230181e-02    1.0116733594e+05
    1.8481226638e-02    1.0105042969e+05
    1.8505210057e-02    1.0096278906e+05
    1.8529184163e-02    1.0089369531e+05
    1.8553148955e-02    1.0084877344e+05
    1.8577100709e-02    1.0082580469e+05
    1.8601041287e-02    1.0081210156e+05
    1.8624972552e-02    1.0080541406e+05
    1.8648892641e-02    1.0081353906e+05
    1.8672801554e-02    1.0082715625e+05
    1.8696699291e-02    1.0086082031e+05
    1.8720587716e-02    1.0089471094e+05
    1.8744463101e-02    1.0094380469e+05
    1.8768329173e-02    1.0098928906e+05
    1.8792184070e-02    1.0104027344e+05
    1.8816027790e-02    1.0109721094e+05
    1.8839860335e-02    1.0115384375e+05
    1.8863683566e-02    1.0120450781e+05
    1.8887493759e-02    1.0125119531e+05
    1.8911294639e-02    1.0130358594e+05
    1.8935086206e-02    1.0135084375e+05
    1.8958866596e-02    1.0139439844e+05
    1.8982635811e-02    1.0143131250e+05
    1.9006397575e-02    1.0148047656e+05
    1.9030146301e-02    1.0153700781e+05
    1.9053885713e-02    1.0159602344e+05
    1.9077615812e-02    1.0165235156e+05
    1.9101334736e-02    1.0170550781e+05
    1.9125042483e-02    1.0176494531e+05
    1.9148740917e-02    1.0182414844e+05
    1.9172428176e-02    1.0188453906e+05
    1.9196104258e-02    1.0193560156e+05
    1.9219771028e-02    1.0198089844e+05
    1.9243424758e-02    1.0202096875e+05
    1.9267069176e-02    1.0205556250e+05
    1.9290700555e-02    1.0208352344e+05
    1.9314322621e-02    1.0210508594e+05
    1.9337931648e-02    1.0213075781e+05
    1.9361529499e-02    1.0215052344e+05
    1.9385114312e-02    1.0217414844e+05
    1.9408687949e-02    1.0219778906e+05
    1.9432250410e-02    1.0222084375e+05
    1.9455801696e-02    1.0223421094e+05
    1.9479339942e-02    1.0225141406e+05
    1.9502865151e-02    1.0226371094e+05
    1.9526379183e-02    1.0228422656e+05
    1.9549878314e-02    1.0230458594e+05
    1.9573366269e-02    1.0232530469e+05
    1.9596841186e-02    1.0234314844e+05
    1.9620303065e-02    1.0235452344e+05
    1.9643751904e-02    1.0236121875e+05
    1.9667187706e-02    1.0236577344e+05
    1.9690606743e-02    1.0236817969e+05
    1.9714014605e-02    1.0238050000e+05
    1.9737409428e-02    1.0239128906e+05
    1.9760791212e-02    1.0239338281e+05
    1.9784159958e-02    1.0239652344e+05
    1.9807513803e-02    1.0239639844e+05
    1.9830854610e-02    1.0239139844e+05
    1.9854182377e-02    1.0238827344e+05
    1.9877497107e-02    1.0238296875e+05
    1.9900798798e-02    1.0237572656e+05
    1.9924087450e-02    1.0236290625e+05
    1.9947361201e-02    1.0235213281e+05
    1.9970623776e-02    1.0233457031e+05
    1.9993871450e-02    1.0232097656e+05
    2.0017107949e-02    1.0230849219e+05
    2.0040329546e-02    1.0229958594e+05
    2.0063538104e-02    1.0228850000e+05
    2.0086731762e-02    1.0227735156e+05
    2.0109914243e-02    1.0226675781e+05
    2.0133081824e-02    1.0225267969e+05
    2.0156236365e-02    1.0223793750e+05
    2.0179376006e-02    1.0222512500e+05
    2.0202504471e-02    1.0221546875e+05
    2.0225618035e-02    1.0220655469e+05
    2.0248720422e-02    1.0219785156e+05
    2.0271807909e-02    1.0219008594e+05
    2.0294882357e-02    1.0218352344e+05
    2.0317947492e-02    1.0217653125e+05
    2.0340997726e-02    1.0217058594e+05
    2.0364036784e-02    1.0216467969e+05
    2.0387060940e-02    1.0215917969e+05
    2.0410073921e-02    1.0216078906e+05
    2.0433073863e-02    1.0215892969e+05
    2.0456060767e-02    1.0215522656e+05
    2.0479036495e-02    1.0215197656e+05
    2.0501999184e-02    1.0214952344e+05
    2.0524948835e-02    1.0214703906e+05
    2.0547885448e-02    1.0214846875e+05
    2.0570809022e-02    1.0214268750e+05
    2.0593719557e-02    1.0213662500e+05
    2.0616617054e-02    1.0213235156e+05
    2.0639499649e-02    1.0211767969e+05
    2.0662369207e-02    1.0211234375e+05
    2.0685223863e-02    1.0210709375e+05
    2.0708063617e-02    1.0210181250e+05
    2.0730890334e-02    1.0209177344e+05
    2.0753700286e-02    1.0207991406e+05
    2.0776495337e-02    1.0206157031e+05
    2.0799275488e-02    1.0205114844e+05
    2.0822042599e-02    1.0203061719e+05
    2.0844791085e-02    1.0201946094e+05
    2.0867524669e-02    1.0199777344e+05
    2.0890241489e-02    1.0198365625e+05
    2.0912945271e-02    1.0196656250e+05
    2.0935632288e-02    1.0195059375e+05
    2.0958306268e-02    1.0192758594e+05
    2.0980965346e-02    1.0191341406e+05
    2.1003607661e-02    1.0189932031e+05
    2.1026238799e-02    1.0189031250e+05
    2.1048855036e-02    1.0187137500e+05
    2.1071458235e-02    1.0185707031e+05
    2.1094048396e-02    1.0183307031e+05
    2.1116625518e-02    1.0181766406e+05
    2.1139191464e-02    1.0180318750e+05
    2.1161744371e-02    1.0179843750e+05
    2.1184286103e-02    1.0178552344e+05
    2.1206818521e-02    1.0177319531e+05
    2.1229337901e-02    1.0176741406e+05
    2.1251846105e-02    1.0175813281e+05
    2.1274344996e-02    1.0174710156e+05
    2.1296832711e-02    1.0174440625e+05
    2.1319312975e-02    1.0174247656e+05
    2.1341778338e-02    1.0173419531e+05
    2.1364232525e-02    1.0173003125e+05
    2.1386675537e-02    1.0172024219e+05
    2.1409107372e-02    1.0170853906e+05
    2.1431528032e-02    1.0170207031e+05
    2.1453931928e-02    1.0169780469e+05
    2.1476324648e-02    1.0169446875e+05
    2.1498700604e-02    1.0169260156e+05
    2.1521063522e-02    1.0169047656e+05
    2.1543409675e-02    1.0168485156e+05
    2.1565740928e-02    1.0168409375e+05
    2.1588053554e-02    1.0168497656e+05
    2.1610351279e-02    1.0168503906e+05
    2.1632634103e-02    1.0168690625e+05
    2.1654898301e-02    1.0169446094e+05
    2.1677147597e-02    1.0170290625e+05
    2.1699378267e-02    1.0171175000e+05
    2.1721594036e-02    1.0172278906e+05
    2.1743793041e-02    1.0172958594e+05
    2.1765975282e-02    1.0173718750e+05
    2.1788140759e-02    1.0174518750e+05
    2.1810289472e-02    1.0175236719e+05
    2.1832419559e-02    1.0175628906e+05
    2.1854531020e-02    1.0176088281e+05
    2.1876627579e-02    1.0176978125e+05
    2.1898705512e-02    1.0177893750e+05
    2.1920768544e-02    1.0178908594e+05
    2.1942811087e-02    1.0179381250e+05
    2.1964838728e-02    1.0179863281e+05
    2.1986849606e-02    1.0180363281e+05
    2.2008845583e-02    1.0180411719e+05
    2.2030822933e-02    1.0180917969e+05
    2.2052785382e-02    1.0181428906e+05
    2.2074732929e-02    1.0181996875e+05
    2.2096665576e-02    1.0182530469e+05
    2.2118583322e-02    1.0182896094e+05
    2.2140489891e-02    1.0183722656e+05
    2.2162377834e-02    1.0184349219e+05
    2.2184254602e-02    1.0185052344e+05
    2.2206118330e-02    1.0185758594e+05
    2.2227969021e-02    1.0186450781e+05
    2.2249806672e-02    1.0187114844e+05
    2.2271629423e-02    1.0187800000e+05
    2.2293440998e-02    1.0187775781e+05
    2.2315241396e-02    1.0188078125e+05
    2.2337028757e-02    1.0188585156e+05
    2.2358803079e-02    1.0189103906e+05
    2.2380566224e-02    1.0189536719e+05
    2.2402318195e-02    1.0189872656e+05
    2.2424057126e-02    1.0189252344e+05
    2.2445784882e-02    1.0189028906e+05
    2.2467501462e-02    1.0188721094e+05
    2.2489206865e-02    1.0188852344e+05
    2.2510899231e-02    1.0188952344e+05
    2.2532582283e-02    1.0189042969e+05
    2.2554252297e-02    1.0189108594e+05
    2.2575911134e-02    1.0189150781e+05
    2.2597560659e-02    1.0188685156e+05
    2.2619199008e-02    1.0188664844e+05
    2.2640828043e-02    1.0188197656e+05
    2.2662445903e-02    1.0188146094e+05
    2.2684050724e-02    1.0188135156e+05
    2.2705646232e-02    1.0188539844e+05
    2.2727232426e-02    1.0189041406e+05
    2.2748809308e-02    1.0189119531e+05
    2.2770375013e-02    1.0189205469e+05
    2.2791929543e-02    1.0189324219e+05
    2.2813472897e-02    1.0189413281e+05
    2.2835006937e-02    1.0189490625e+05
    2.2856531665e-02    1.0189639844e+05
    2.2878047079e-02    1.0189730469e+05
    2.2899549454e-02    1.0189828906e+05
    2.2921044379e-02    1.0190014844e+05
    2.2942528129e-02    1.0190221875e+05
    2.2964000702e-02    1.0190453906e+05
    2.2985465825e-02    1.0190650000e+05
    2.3006917909e-02    1.0190809375e+05
    2.3028360680e-02    1.0190408594e+05
    2.3049792275e-02    1.0189928906e+05
    2.3071214557e-02    1.0189803125e+05
    2.3092625663e-02    1.0189190625e+05
    2.3114029318e-02    1.0189042969e+05
    2.3135419935e-02    1.0188627344e+05
    2.3156799376e-02    1.0188193750e+05
    2.3178169504e-02    1.0188027344e+05
    2.3199530318e-02    1.0187882031e+05
    2.3220879957e-02    1.0187635156e+05
    2.3242218420e-02    1.0187360156e+05
    2.3263547570e-02    1.0186242969e+05
    2.3284865543e-02    1.0186441406e+05
    2.3306174204e-02    1.0186666406e+05
    2.3327469826e-02    1.0186466406e+05
    2.3348756135e-02    1.0186171094e+05
    2.3370031267e-02    1.0185781250e+05
    2.3391297087e-02    1.0185591406e+05
    2.3412553594e-02    1.0185718750e+05
    2.3433798924e-02    1.0185703125e+05
    2.3455033079e-02    1.0186664844e+05
    2.3476256058e-02    1.0186716406e+05
    2.3497469723e-02    1.0187278125e+05
    2.3518672213e-02    1.0187343750e+05
    2.3539865389e-02    1.0187900000e+05
    2.3561049253e-02    1.0188038281e+05
    2.3582221940e-02    1.0189153906e+05
    2.3603385314e-02    1.0190402344e+05
    2.3624535650e-02    1.0190813281e+05
    2.3645676672e-02    1.0192280469e+05
    2.3666808382e-02    1.0193707031e+05
    2.3687927052e-02    1.0195225000e+05
    2.3709038273e-02    1.0196890625e+05
    2.3730138317e-02    1.0198700000e+05
    2.3751227185e-02    1.0200641406e+05
    2.3772306740e-02    1.0202688281e+05
    2.3793375120e-02    1.0204833594e+05
    2.3814432323e-02    1.0207096094e+05
    2.3835480213e-02    1.0209405469e+05
    2.3856516927e-02    1.0211760156e+05
    2.3877544329e-02    1.0213702344e+05
    2.3898560554e-02    1.0215705469e+05
    2.3919565603e-02    1.0217191406e+05
    2.3940561339e-02    1.0217656250e+05
    2.3961545900e-02    1.0219111719e+05
    2.3982519284e-02    1.0220462500e+05
    2.4003483355e-02    1.0221337500e+05
    2.4024436250e-02    1.0221731250e+05
    2.4045377970e-02    1.0221478906e+05
    2.4066310376e-02    1.0220853906e+05
    2.4087233469e-02    1.0220496094e+05
    2.4108145386e-02    1.0218699219e+05
    2.4129044265e-02    1.0216628906e+05
    2.4149935693e-02    1.0214827344e+05
    2.4170814082e-02    1.0211803906e+05
    2.4191683158e-02    1.0208952344e+05
    2.4212542921e-02    1.0205353906e+05
    2.4233391508e-02    1.0200996094e+05
    2.4254228920e-02    1.0196781250e+05
    2.4275057018e-02    1.0192272656e+05
    2.4295873940e-02    1.0188453125e+05
    2.4316681549e-02    1.0184492969e+05
    2.4337477982e-02    1.0181391406e+05
    2.4358265102e-02    1.0178914844e+05
    2.4379042909e-02    1.0176933594e+05
    2.4399809539e-02    1.0175725781e+05
    2.4420566857e-02    1.0175615625e+05
    2.4441312999e-02    1.0176222656e+05
    2.4462047964e-02    1.0177591406e+05
    2.4482775480e-02    1.0180243750e+05
    2.4503491819e-02    1.0182357031e+05
    2.4524198845e-02    1.0185252344e+05
    2.4544894695e-02    1.0188511719e+05
    2.4565581232e-02    1.0191637500e+05
    2.4586258456e-02    1.0195035156e+05
    2.4606924504e-02    1.0198252344e+05
    2.4627581239e-02    1.0201709375e+05
    2.4648228660e-02    1.0204968750e+05
    2.4668866768e-02    1.0207884375e+05
    2.4689495564e-02    1.0210397656e+05
    2.4710113183e-02    1.0212067969e+05
    2.4730721489e-02    1.0214663281e+05
    2.4751318619e-02    1.0216316406e+05
    2.4771906435e-02    1.0217947656e+05
    2.4792486802e-02    1.0219553906e+05
    2.4813055992e-02    1.0220683594e+05
    2.4833614007e-02    1.0221799219e+05
    2.4854162708e-02    1.0223310156e+05
    2.4874702096e-02    1.0224816406e+05
    2.4895232171e-02    1.0225328906e+05
    2.4915752932e-02    1.0226756250e+05
    2.4936262518e-02    1.0227977344e+05
    2.4956764653e-02    1.0229115625e+05
    2.4977253750e-02    1.0230431250e+05
    2.4997735396e-02    1.0231316406e+05
    2.5018205866e-02    1.0232621094e+05
    2.5038668886e-02    1.0233810156e+05
    2.5059120730e-02    1.0234089844e+05
    2.5079563260e-02    1.0235235156e+05
    2.5099996477e-02    1.0235377344e+05
    2.5120420381e-02    1.0235525781e+05
    2.5140833110e-02    1.0236477344e+05
    2.5161236525e-02    1.0236606250e+05
    2.5181630626e-02    1.0237121094e+05
    2.5202017277e-02    1.0236847656e+05
    2.5222390890e-02    1.0236502344e+05
    2.5242757052e-02    1.0236033594e+05
    2.5263112038e-02    1.0234564844e+05
    2.5283459574e-02    1.0234353906e+05
    2.5303795934e-02    1.0234035156e+05
    2.5324124843e-02    1.0233196094e+05
    2.5344440714e-02    1.0232266406e+05
    2.5364749134e-02    1.0231897656e+05
    2.5385048240e-02    1.0231034375e+05
    2.5405339897e-02    1.0229933594e+05
    2.5425618514e-02    1.0229635156e+05
    2.5445887819e-02    1.0228377344e+05
    2.5466147810e-02    1.0227983594e+05
    2.5486400351e-02    1.0227108594e+05
    2.5506639853e-02    1.0226221094e+05
    2.5526873767e-02    1.0225708594e+05
    2.5547094643e-02    1.0224234375e+05
    2.5567308068e-02    1.0223643750e+05
    2.5587510318e-02    1.0223093750e+05
    2.5607703254e-02    1.0222552344e+05
    2.5627886876e-02    1.0222921094e+05
    2.5648061186e-02    1.0221906250e+05
    2.5668226182e-02    1.0220891406e+05
    2.5688380003e-02    1.0220336719e+05
    2.5708526373e-02    1.0219671875e+05
    2.5728661567e-02    1.0219044531e+05
    2.5748789310e-02    1.0218483594e+05
    2.5768904015e-02    1.0218278906e+05
    2.5789011270e-02    1.0217375000e+05
    2.5809109211e-02    1.0216477344e+05
    2.5829195976e-02    1.0215794531e+05
    2.5849273428e-02    1.0215588281e+05
    2.5869343430e-02    1.0214680469e+05
    2.5889402255e-02    1.0214197656e+05
    2.5909451768e-02    1.0213455469e+05
    2.5929493830e-02    1.0212763281e+05
    2.5949522853e-02    1.0212091406e+05
    2.5969544426e-02    1.0211633594e+05
    2.5989556685e-02    1.0211158594e+05
    2.6009559631e-02    1.0210503125e+05
    2.6029553264e-02    1.0209887500e+05
    2.6049537584e-02    1.0208582031e+05
    2.6069512591e-02    1.0207766406e+05
    2.6089478284e-02    1.0208157031e+05
    2.6109432802e-02    1.0207646875e+05
    2.6129379869e-02    1.0207238281e+05
    2.6149315760e-02    1.0207371094e+05
    2.6169244200e-02    1.0207322656e+05
    2.6189163327e-02    1.0207386719e+05
    2.6209073141e-02    1.0206822656e+05
    2.6228975505e-02    1.0207719531e+05
    2.6248866692e-02    1.0207796094e+05
    2.6268748567e-02    1.0208416406e+05
    2.6288621128e-02    1.0209121094e+05
    2.6308484375e-02    1.0209410156e+05
    2.6328338310e-02    1.0210727344e+05
    2.6348184794e-02    1.0211171875e+05
    2.6368021965e-02    1.0212119531e+05
    2.6387847960e-02    1.0213175000e+05
    2.6407664642e-02    1.0214316406e+05
    2.6427472010e-02    1.0215508594e+05
    2.6447271928e-02    1.0216709375e+05
    2.6467062533e-02    1.0217458594e+05
    2.6486843824e-02    1.0218189844e+05
    2.6506617665e-02    1.0219910156e+05
    2.6526380330e-02    1.0220602344e+05
    2.6546133682e-02    1.0221313281e+05
    2.6565877721e-02    1.0222505469e+05
    2.6585612446e-02    1.0223194531e+05
    2.6605339721e-02    1.0223931250e+05
    2.6625057682e-02    1.0225069531e+05
    2.6644766331e-02    1.0225483594e+05
    2.6664465666e-02    1.0225872656e+05
    2.6684155688e-02    1.0226890625e+05
    2.6703836396e-02    1.0227896094e+05
    2.6723509654e-02    1.0228183594e+05
    2.6743173599e-02    1.0227903906e+05
    2.6762828231e-02    1.0228278125e+05
    2.6782475412e-02    1.0228560156e+05
    2.6802113280e-02    1.0228900781e+05
    2.6821739972e-02    1.0228928906e+05
    2.6841359213e-02    1.0228509375e+05
    2.6860967278e-02    1.0228627344e+05
    2.6880569756e-02    1.0228783594e+05
    2.6900164783e-02    1.0228867969e+05
    2.6919748634e-02    1.0228516406e+05
    2.6939325035e-02    1.0228567969e+05
    2.6958892122e-02    1.0228646094e+05
    2.6978449896e-02    1.0228425781e+05
    2.6997998357e-02    1.0228155469e+05
    2.7017539367e-02    1.0227612500e+05
    2.7037071064e-02    1.0227512500e+05
    2.7056595311e-02    1.0227296094e+05
    2.7076110244e-02    1.0226913281e+05
    2.7095617726e-02    1.0226571875e+05
    2.7115115896e-02    1.0226510156e+05
    2.7134604752e-02    1.0226152344e+05
    2.7154086158e-02    1.0225753906e+05
    2.7173558250e-02    1.0225836719e+05
    2.7193021029e-02    1.0225741406e+05
    2.7212476358e-02    1.0225839844e+05
    2.7231922373e-02    1.0225271094e+05
    2.7251357213e-02    1.0225421094e+05
    2.7270786464e-02    1.0225116406e+05
    2.7290204540e-02    1.0225552344e+05
    2.7309613302e-02    1.0225727344e+05
    2.7329014614e-02    1.0224978906e+05
    2.7348404750e-02    1.0224902344e+05
    2.7367785573e-02    1.0225781250e+05
    2.7387158945e-02    1.0225278906e+05
    2.7406521142e-02    1.0225209375e+05
    2.7425874025e-02    1.0225683594e+05
    2.7445219457e-02    1.0225447656e+05
    2.7464553714e-02    1.0225216406e+05
    2.7483878657e-02    1.0225660156e+05
    2.7503194287e-02    1.0225685156e+05
    2.7522502467e-02    1.0225685156e+05
    2.7541799471e-02    1.0225628906e+05
    2.7561087161e-02    1.0225399219e+05
    2.7580365539e-02    1.0225633594e+05
    2.7599634603e-02    1.0225641406e+05
    2.7618894354e-02    1.0225685156e+05
    2.7638144791e-02    1.0225744531e+05
    2.7657385916e-02    1.0225721094e+05
    2.7676619589e-02    1.0225735156e+05
    2.7695843950e-02    1.0225791406e+05
    2.7715058997e-02    1.0225897656e+05
    2.7734262869e-02    1.0225960156e+05
    2.7753459290e-02    1.0226110156e+05
    2.7772648260e-02    1.0226260156e+05
    2.7791827917e-02    1.0226414844e+05
    2.7810998261e-02    1.0226572656e+05
    2.7830159292e-02    1.0227141406e+05
    2.7849311009e-02    1.0226775000e+05
    2.7868455276e-02    1.0226886719e+05
    2.7887590230e-02    1.0226960156e+05
    2.7906717733e-02    1.0227053125e+05
    2.7925835922e-02    1.0227133594e+05
    2.7944946662e-02    1.0227143750e+05
    2.7964048088e-02    1.0226710156e+05
    2.7983140200e-02    1.0226489844e+05
    2.8002224863e-02    1.0226735156e+05
    2.8021300212e-02    1.0227218750e+05
    2.8040368110e-02    1.0227209375e+05
    2.8059426695e-02    1.0226250781e+05
    2.8078475967e-02    1.0226197656e+05
    2.8097519651e-02    1.0226128125e+05
    2.8116554022e-02    1.0226040625e+05
    2.8135580942e-02    1.0225921094e+05
    2.8154598549e-02    1.0225384375e+05
    2.8173606843e-02    1.0225284375e+05
    2.8192607686e-02    1.0225180469e+05
    2.8211599216e-02    1.0224975781e+05
    2.8230583295e-02    1.0224319531e+05
    2.8249559924e-02    1.0224065625e+05
    2.8268527240e-02    1.0223821875e+05
    2.8287487105e-02    1.0223559375e+05
    2.8306435794e-02    1.0223272656e+05
    2.8325378895e-02    1.0222996094e+05
    2.8344312683e-02    1.0222666406e+05
    2.8363237157e-02    1.0221639844e+05
    2.8382156044e-02    1.0221591406e+05
    2.8401065618e-02    1.0221818750e+05
    2.8419965878e-02    1.0221553125e+05
    2.8438858688e-02    1.0221365625e+05
    2.8457742184e-02    1.0221191406e+05
    2.8476616368e-02    1.0221275781e+05
    2.8495483100e-02    1.0221882031e+05
    2.8514338657e-02    1.0221834375e+05
    2.8533160686e-02    1.0221322656e+05
    2.8551930562e-02    1.0220871094e+05
    2.8570635244e-02    1.0221510156e+05
    2.8589271009e-02    1.0221813281e+05
    2.8607837856e-02    1.0221888281e+05
    2.8626350686e-02    1.0222510156e+05
    2.8644818813e-02    1.0223203906e+05
    2.8663259000e-02    1.0223492969e+05
    2.8681686148e-02    1.0224328906e+05
    2.8700113297e-02    1.0224489844e+05
    2.8718546033e-02    1.0224591406e+05
    2.8736986220e-02    1.0225633594e+05
    2.8755431995e-02    1.0226302344e+05
    2.8773877770e-02    1.0226710156e+05
    2.8792314231e-02    1.0227214844e+05
    2.8810730204e-02    1.0227696094e+05
    2.8829116374e-02    1.0228247656e+05
    2.8847465292e-02    1.0229285156e+05
    2.8865773231e-02    1.0230278125e+05
    2.8884036466e-02    1.0230853906e+05
    2.8902258724e-02    1.0231235156e+05
    2.8920443729e-02    1.0232046875e+05
    2.8938598931e-02    1.0232583594e+05
    2.8956729919e-02    1.0233182031e+05
    2.8974846005e-02    1.0233734375e+05
    2.8992949054e-02    1.0234250781e+05
    2.9011042789e-02    1.0234296875e+05
    2.9029129073e-02    1.0234789844e+05
    2.9047204182e-02    1.0235190625e+05
    2.9065268114e-02    1.0235122656e+05
    2.9083315283e-02    1.0235928906e+05
    2.9101338238e-02    1.0235792969e+05
    2.9119335115e-02    1.0236130469e+05
    2.9137304053e-02    1.0236349219e+05
    2.9155241325e-02    1.0236066406e+05
    2.9173148796e-02    1.0236183594e+05
    2.9191024601e-02    1.0236216406e+05
    2.9208874330e-02    1.0235234375e+05
    2.9226697981e-02    1.0235057031e+05
    2.9244501144e-02    1.0234585156e+05
    2.9262285680e-02    1.0233575781e+05
    2.9280053452e-02    1.0233158594e+05
    2.9297806323e-02    1.0232710156e+05
    2.9315544292e-02    1.0231247656e+05
    2.9333265498e-02    1.0230699219e+05
    2.9350971803e-02    1.0230077344e+05
    2.9368655756e-02    1.0228925781e+05
    2.9386319220e-02    1.0227822656e+05
    2.9403960332e-02    1.0227096094e+05
    2.9421577230e-02    1.0226321094e+05
    2.9439168051e-02    1.0225074219e+05
    2.9456734657e-02    1.0223818750e+05
    2.9474277049e-02    1.0223061719e+05
    2.9491795227e-02    1.0222359375e+05
    2.9509292915e-02    1.0221891406e+05
    2.9526771978e-02    1.0221521094e+05
    2.9544232413e-02    1.0220914844e+05
    2.9561674222e-02    1.0220340625e+05
    2.9579099268e-02    1.0219563281e+05
    2.9596509412e-02    1.0218864844e+05
    2.9613900930e-02    1.0218987500e+05
    2.9631273821e-02    1.0218766406e+05
    2.9648626223e-02    1.0219147656e+05
    2.9665958136e-02    1.0220116406e+05
    2.9683271423e-02    1.0220303906e+05
    2.9700560495e-02    1.0221483594e+05
    2.9717829078e-02    1.0221835156e+05
    2.9735075310e-02    1.0223189844e+05
    2.9752301052e-02    1.0223664844e+05
    2.9769508168e-02    1.0224180469e+05
    2.9786696658e-02    1.0225203906e+05
    2.9803866521e-02    1.0226253906e+05
    2.9821017757e-02    1.0226910156e+05
    2.9838152230e-02    1.0228055469e+05
    2.9855269939e-02    1.0228959375e+05
    2.9872370884e-02    1.0229894531e+05
    2.9889453202e-02    1.0230528125e+05
    2.9906518757e-02    1.0230667969e+05
    2.9923565686e-02    1.0231221094e+05
    2.9940593988e-02    1.0231719531e+05
    2.9957601801e-02    1.0231709375e+05
    2.9974590987e-02    1.0231664844e+05
    2.9991561547e-02    1.0232066406e+05
    3.0008511618e-02    1.0232371094e+05
    3.0025444925e-02    1.0232700781e+05
    3.0042361468e-02    1.0232469531e+05
    3.0059259385e-02    1.0232186719e+05
    3.0076142401e-02    1.0231758594e+05
    3.0093006790e-02    1.0231238281e+05
    3.0109854415e-02    1.0230214844e+05
    3.0126683414e-02    1.0229541406e+05
    3.0143497512e-02    1.0228827344e+05
    3.0160292983e-02    1.0228297656e+05
    3.0177071691e-02    1.0227742969e+05
    3.0193833634e-02    1.0226936719e+05
    3.0210576952e-02    1.0226555469e+05
    3.0227303505e-02    1.0225685156e+05
    3.0244011432e-02    1.0225281250e+05
    3.0260702595e-02    1.0224372656e+05
    3.0277376994e-02    1.0223938281e+05
    3.0294034630e-02    1.0223516406e+05
    3.0310675502e-02    1.0223564844e+05
    3.0327299610e-02    1.0223227344e+05
    3.0343905091e-02    1.0223382031e+05
    3.0360495672e-02    1.0223627344e+05
    3.0377071351e-02    1.0223958594e+05
    3.0393628404e-02    1.0224821094e+05
    3.0410168692e-02    1.0224827344e+05
    3.0426690355e-02    1.0225758594e+05
    3.0443195254e-02    1.0226321094e+05
    3.0459685251e-02    1.0226937500e+05
    3.0476156622e-02    1.0228078125e+05
    3.0492611229e-02    1.0228357031e+05
    3.0509050936e-02    1.0229587500e+05
    3.0525473878e-02    1.0229983594e+05
    3.0541881919e-02    1.0231377344e+05
    3.0558273196e-02    1.0231862500e+05
    3.0574647710e-02    1.0232350781e+05
    3.0591005459e-02    1.0233352344e+05
    3.0607348308e-02    1.0233877344e+05
    3.0623674393e-02    1.0234589844e+05
    3.0639985576e-02    1.0235068750e+05
    3.0656279996e-02    1.0234833594e+05
    3.0672557652e-02    1.0235233594e+05
    3.0688818544e-02    1.0235616406e+05
    3.0705062672e-02    1.0236003906e+05
    3.0721291900e-02    1.0235847656e+05
    3.0737506226e-02    1.0235931250e+05
    3.0753703788e-02    1.0235944531e+05
    3.0769886449e-02    1.0235644531e+05
    3.0786054209e-02    1.0235303906e+05
    3.0802207068e-02    1.0234953906e+05
    3.0818343163e-02    1.0234521094e+05
    3.0834466219e-02    1.0234514844e+05
    3.0850572512e-02    1.0234046094e+05
    3.0866663903e-02    1.0233577344e+05
    3.0882738531e-02    1.0233521094e+05
    3.0898798257e-02    1.0233503906e+05
    3.0914843082e-02    1.0232994531e+05
    3.0930871144e-02    1.0232983594e+05
    3.0946886167e-02    1.0232482031e+05
    3.0962884426e-02    1.0232471875e+05
    3.0978867784e-02    1.0232666406e+05
    3.0994836241e-02    1.0232403906e+05
    3.1010789797e-02    1.0232359375e+05
    3.1026728451e-02    1.0232330469e+05
    3.1042650342e-02    1.0232010156e+05
    3.1058559194e-02    1.0231299219e+05
    3.1074455008e-02    1.0231146094e+05
    3.1090334058e-02    1.0230996094e+05
    3.1106200069e-02    1.0230950781e+05
    3.1122051179e-02    1.0231096875e+05
    3.1137887388e-02    1.0230816406e+05
    3.1153710559e-02    1.0230739844e+05
    3.1169516966e-02    1.0230688281e+05
    3.1185310334e-02    1.0230622656e+05
    3.1201090664e-02    1.0230291406e+05
    3.1216854230e-02    1.0229442969e+05
    3.1232602894e-02    1.0229217969e+05
    3.1248336658e-02    1.0229300781e+05
    3.1264055520e-02    1.0229846094e+05
    3.1279761344e-02    1.0229702344e+05
    3.1295452267e-02    1.0229575781e+05
    3.1311132014e-02    1.0229985156e+05
    3.1326796860e-02    1.0229875000e+05
    3.1342446804e-02    1.0229338281e+05
    3.1358085573e-02    1.0229262500e+05
    3.1373709440e-02    1.0229094531e+05
    3.1389318407e-02    1.0228981250e+05
    3.1404916197e-02    1.0228863281e+05
    3.1420499086e-02    1.0229266406e+05
    3.1436067075e-02    1.0229716406e+05
    3.1451620162e-02    1.0229685156e+05
    3.1467158347e-02    1.0229709375e+05
    3.1482685357e-02    1.0230246094e+05
    3.1498193741e-02    1.0230265625e+05
    3.1513694674e-02    1.0230786719e+05
    3.1529176980e-02    1.0230835156e+05
    3.1544648111e-02    1.0230913281e+05
    3.1560108066e-02    1.0230967969e+05
    3.1575553119e-02    1.0231052344e+05
    3.1590986997e-02    1.0231118750e+05
    3.1606405973e-02    1.0231231250e+05
    3.1621813774e-02    1.0231382031e+05
    3.1637206674e-02    1.0231713281e+05
    3.1652588397e-02    1.0231608594e+05
    3.1667951494e-02    1.0231721875e+05
    3.1683307141e-02    1.0231817969e+05
    3.1698647887e-02    1.0231891406e+05
    3.1713977456e-02    1.0231485156e+05
    3.1729292125e-02    1.0231108594e+05
    3.1744595617e-02    1.0231064844e+05
    3.1759884208e-02    1.0231064844e+05
    3.1775161624e-02    1.0231003906e+05
    3.1790427864e-02    1.0230940625e+05
    3.1805675477e-02    1.0230908594e+05
    3.1820915639e-02    1.0230902344e+05
    3.1836140901e-02    1.0230878125e+05
    3.1851354986e-02    1.0231150781e+05
    3.1866557896e-02    1.0231383594e+05
    3.1881745905e-02    1.0231481250e+05
    3.1896922737e-02    1.0231777344e+05
    3.1912088394e-02    1.0231817969e+05
    3.1927239150e-02    1.0231869531e+05
    3.1942378730e-02    1.0231233594e+05
    3.1957507133e-02    1.0231283594e+05
    3.1972620636e-02    1.0231280469e+05
    3.1987726688e-02    1.0231291406e+05
    3.2002814114e-02    1.0231810156e+05
    3.2017890364e-02    1.0231872656e+05
    3.2032959163e-02    1.0231935156e+05
    3.2048013061e-02    1.0231985156e+05
    3.2063052058e-02    1.0231567969e+05
    3.2078083605e-02    1.0231638281e+05
    3.2093103975e-02    1.0232405469e+05
    3.2108109444e-02    1.0232716406e+05
    3.2123107463e-02    1.0232316406e+05
    3.2138090581e-02    1.0232375781e+05
    3.2153062522e-02    1.0232878125e+05
    3.2168023288e-02    1.0232968750e+05
    3.2182972878e-02    1.0233103906e+05
    3.2197911292e-02    1.0233189844e+05
    3.2212834805e-02    1.0233283594e+05
    3.2227750868e-02    1.0233903906e+05
    3.2242652029e-02    1.0233768750e+05
    3.2257542014e-02    1.0233660156e+05
    3.2272424549e-02    1.0233771094e+05
    3.2287292182e-02    1.0233903906e+05
    3.2302148640e-02    1.0234008594e+05
    3.2316997647e-02    1.0234097656e+05
    3.2331831753e-02    1.0234488281e+05
    3.2346658409e-02    1.0234861719e+05
    3.2361470163e-02    1.0234538281e+05
    3.2376270741e-02    1.0234708594e+05
    3.2391063869e-02    1.0234818750e+05
    3.2405842096e-02    1.0234928906e+05
    3.2420612872e-02    1.0235082031e+05
    3.2435368747e-02    1.0235171094e+05
    3.2450113446e-02    1.0235284375e+05
    3.2464850694e-02    1.0235419531e+05
    3.2479573041e-02    1.0235493750e+05
    3.2494287938e-02    1.0235621094e+05
    3.2508991659e-02    1.0235703906e+05
    3.2523684204e-02    1.0235552344e+05
    3.2538365573e-02    1.0235386719e+05
    3.2553035766e-02    1.0234942969e+05
    3.2567698509e-02    1.0235416406e+05
    3.2582346350e-02    1.0234996875e+05
    3.2596986741e-02    1.0235716406e+05
    3.2611619681e-02    1.0235987500e+05
    3.2626237720e-02    1.0235617969e+05
    3.2640848309e-02    1.0235685156e+05
    3.2655447721e-02    1.0236216406e+05
    3.2670035958e-02    1.0235359375e+05
    3.2684613019e-02    1.0235430469e+05
    3.2699178904e-02    1.0235714844e+05
    3.2713737339e-02    1.0235975781e+05
    3.2728284597e-02    1.0236064844e+05
    3.2742820680e-02    1.0236172656e+05
    3.2757349312e-02    1.0236047656e+05
    3.2771866769e-02    1.0236125781e+05
    3.2786373049e-02    1.0235996094e+05
    3.2800871879e-02    1.0236097656e+05
    3.2815355808e-02    1.0236161719e+05
    3.2829832286e-02    1.0236458594e+05
    3.2844301313e-02    1.0236547656e+05
    3.2858755440e-02    1.0236375000e+05
    3.2873202115e-02    1.0236425781e+05
    3.2887637615e-02    1.0236502344e+05
    3.2902065665e-02    1.0236543750e+05
    3.2916482538e-02    1.0236583594e+05
    3.2930891961e-02    1.0236613281e+05
    3.2945290208e-02    1.0236608594e+05
    3.2959677279e-02    1.0236584375e+05
    3.2974056900e-02    1.0236577344e+05
    3.2988425344e-02    1.0236075000e+05
    3.3002786338e-02    1.0235541406e+05
    3.3017136157e-02    1.0235464844e+05
    3.3031478524e-02    1.0235422656e+05
    3.3045809716e-02    1.0236310156e+05
    3.3060129732e-02    1.0236258594e+05
    3.3074442297e-02    1.0236235156e+05
    3.3088747412e-02    1.0235806250e+05
    3.3103041351e-02    1.0235812500e+05
    3.3117324114e-02    1.0235371094e+05
    3.3131599426e-02    1.0235350000e+05
    3.3145863563e-02    1.0235357031e+05
    3.3160120249e-02    1.0235538281e+05
    3.3174365759e-02    1.0235687500e+05
    3.3188603818e-02    1.0235183594e+05
    3.3202830702e-02    1.0235133594e+05
    3.3217050135e-02    1.0235096875e+05
    3.3231258392e-02    1.0235047656e+05
    3.3245459199e-02    1.0234702344e+05
    3.3259648830e-02    1.0234378906e+05
    3.3273831010e-02    1.0234500781e+05
    3.3288005739e-02    1.0234600000e+05
    3.3302169293e-02    1.0234444531e+05
    3.3316325396e-02    1.0234339844e+05
    3.3330474049e-02    1.0234175781e+05
    3.3344611526e-02    1.0234089844e+05
    3.3358741552e-02    1.0233489844e+05
    3.3372864127e-02    1.0233593750e+05
    3.3386975527e-02    1.0233438281e+05
    3.3401079476e-02    1.0233344531e+05
    3.3415172249e-02    1.0232989844e+05
    3.3429257572e-02    1.0233207031e+05
    3.3443335444e-02    1.0233334375e+05
    3.3457405865e-02    1.0233322656e+05
    3.3471468836e-02    1.0233265625e+05
    3.3485524356e-02    1.0233181250e+05
    3.3499568701e-02    1.0233136719e+05
    3.3513605595e-02    1.0233093750e+05
    3.3527631313e-02    1.0233005469e+05
    3.3541653305e-02    1.0232947656e+05
    3.3555664122e-02    1.0232839844e+05
    3.3569667488e-02    1.0232799219e+05
    3.3583663404e-02    1.0233230469e+05
    3.3597648144e-02    1.0233136719e+05
    3.3611625433e-02    1.0232622656e+05
    3.3625595272e-02    1.0232508594e+05
    3.3639557660e-02    1.0232415625e+05
    3.3653512597e-02    1.0232375000e+05
    3.3667460084e-02    1.0232336719e+05
    3.3681396395e-02    1.0232268750e+05
    3.3695328981e-02    1.0232247656e+05
    3.3709254116e-02    1.0231944531e+05
    3.3723168075e-02    1.0231832031e+05
    3.3737078309e-02    1.0231746094e+05
    3.3750977367e-02    1.0231861719e+05
    3.3764872700e-02    1.0231783594e+05
    3.3778760582e-02    1.0231675781e+05
    3.3792637289e-02    1.0231596094e+05
    3.3806510270e-02    1.0231539844e+05
    3.3820372075e-02    1.0231400000e+05
    3.3834230155e-02    1.0231344531e+05
    3.3848077059e-02    1.0231264844e+05
    3.3861916512e-02    1.0231185156e+05
    3.3875752240e-02    1.0231114844e+05
    3.3889576793e-02    1.0231072656e+05
    3.3903393894e-02    1.0231036719e+05
    3.3917203546e-02    1.0231008594e+05
    3.3931009471e-02    1.0230986719e+05
    3.3944804221e-02    1.0230946094e+05
    3.3958595246e-02    1.0230883594e+05
    3.3972378820e-02    1.0230883594e+05
    3.3986151218e-02    1.0230882031e+05
    3.3999919891e-02    1.0230853906e+05
    3.4013681114e-02    1.0230822656e+05
    3.4027434886e-02    1.0230758594e+05
    3.4041177481e-02    1.0230747656e+05
    3.4054916352e-02    1.0230696875e+05
    3.4068647772e-02    1.0230661719e+05
    3.4082375467e-02    1.0230589844e+05
    3.4096091986e-02    1.0230542969e+05
    3.4109804779e-02    1.0230232031e+05
    3.4123510122e-02    1.0229971094e+05
    3.4137208015e-02    1.0230118750e+05
    3.4150898457e-02    1.0230214844e+05
    3.4164581448e-02    1.0230146094e+05
    3.4178260714e-02    1.0230105469e+05
    3.4191932529e-02    1.0230075781e+05
    3.4205596894e-02    1.0230000781e+05
    3.4219253808e-02    1.0229940625e+05
    3.4232903272e-02    1.0229918750e+05
    3.4246545285e-02    1.0229935156e+05
    3.4260183573e-02    1.0229963281e+05
    3.4273810685e-02    1.0229965625e+05
    3.4287434071e-02    1.0229967969e+05
    3.4301050007e-02    1.0229941406e+05
    3.4314658493e-02    1.0229909375e+05
    3.4328263253e-02    1.0229894531e+05
    3.4341860563e-02    1.0229865625e+05
    3.4355450422e-02    1.0229703906e+05
    3.4369036555e-02    1.0229697656e+05
    3.4382611513e-02    1.0229553906e+05
    3.4396182746e-02    1.0228753906e+05
    3.4409742802e-02    1.0228321875e+05
    3.4423299134e-02    1.0228142969e+05
    3.4436848015e-02    1.0227897656e+05
    3.4450393170e-02    1.0227735156e+05
    3.4463927150e-02    1.0227512500e+05
    3.4477461129e-02    1.0227350000e+05
    3.4490987659e-02    1.0227196094e+05
    3.4504506737e-02    1.0227046094e+05
    3.4518022090e-02    1.0226897656e+05
    3.4531529993e-02    1.0226983594e+05
    3.4545030445e-02    1.0226642969e+05
    3.4558523446e-02    1.0227033594e+05
    3.4572008997e-02    1.0226641406e+05
    3.4585487098e-02    1.0226739844e+05
    3.4598957747e-02    1.0226077344e+05
    3.4612424672e-02    1.0225878906e+05
    3.4625884145e-02    1.0225934375e+05
    3.4639336169e-02    1.0225496094e+05
    3.4652780741e-02    1.0225578906e+05
    3.4666225314e-02    1.0225227344e+05
    3.4679658711e-02    1.0225075781e+05
    3.4693088382e-02    1.0224953906e+05
    3.4706510603e-02    1.0224858594e+05
    3.4719929099e-02    1.0224733594e+05
    3.4733340144e-02    1.0224583594e+05
    3.4746743739e-02    1.0224461719e+05
    3.4760143608e-02    1.0224341406e+05
    3.4773536026e-02    1.0224253906e+05
    3.4786924720e-02    1.0224114844e+05
    3.4800305963e-02    1.0224012500e+05
    3.4813679755e-02    1.0223917969e+05
    3.4827046096e-02    1.0223807031e+05
    3.4840408713e-02    1.0223733594e+05
    3.4853763878e-02    1.0223691406e+05
    3.4867111593e-02    1.0223624219e+05
    3.4880455583e-02    1.0223616406e+05
    3.4893795848e-02    1.0223533594e+05
    3.4907124937e-02    1.0223497656e+05
    3.4920454025e-02    1.0223439844e+05
    3.4933775663e-02    1.0223403906e+05
    3.4947093576e-02    1.0223309375e+05
    3.4960404038e-02    1.0223237500e+05
    3.4973710775e-02    1.0223138281e+05
    3.4987010062e-02    1.0223075000e+05
endcurve
