Curveplot
LS-DYNA keyword deck by LS-PrePost                          
Time
Pressure
Defined Connection
Pressure @ 41 #pts=1745
* Minval=     9.9433867188e+04 at time=         0.0152227823
* Maxval=     1.7032321875e+05 at time=         0.0064410856
    0.0000000000e+00    9.9998710938e+04
    3.3812357287e-05    9.9998710938e+04
    6.1326652940e-05    9.9997757812e+04
    8.9102875791e-05    9.9997843750e+04
    1.1682785407e-04    9.9999101562e+04
    1.4461828687e-04    9.9999406250e+04
    1.7236733402e-04    9.9998726562e+04
    2.0016246708e-04    1.0000849219e+05
    2.2795486439e-04    1.0000102344e+05
    2.5574557367e-04    1.0000108594e+05
    2.8353667585e-04    1.0000082031e+05
    3.1133697485e-04    9.9990281250e+04
    3.3912662184e-04    9.9999257812e+04
    3.6691734567e-04    1.0000059375e+05
    3.9470891352e-04    1.0000097656e+05
    4.2249175021e-04    1.0000035156e+05
    4.5027161832e-04    1.0000142969e+05
    4.7804549104e-04    1.0000363281e+05
    5.0581363030e-04    1.0000290625e+05
    5.3357944125e-04    1.0000300000e+05
    5.6134146871e-04    1.0000159375e+05
    5.8909942163e-04    9.9992062500e+04
    6.1685312539e-04    9.9998062500e+04
    6.4460188150e-04    1.0000202344e+05
    6.7234638846e-04    1.0000174219e+05
    7.0008635521e-04    1.0000060156e+05
    7.2782178177e-04    1.0000288281e+05
    7.5555208605e-04    1.0000277344e+05
    7.8327720985e-04    9.9995648438e+04
    8.1099680392e-04    1.0000112500e+05
    8.3871174138e-04    1.0000096094e+05
    8.6642213864e-04    9.9992695312e+04
    8.9412782108e-04    1.0000271875e+05
    9.2182843946e-04    1.0000135156e+05
    9.4952445943e-04    1.0000582031e+05
    9.7721535712e-04    1.0000153906e+05
    1.0049008997e-03    9.9996687500e+04
    1.0325826006e-03    9.9991468750e+04
    1.0602590628e-03    1.0000175000e+05
    1.0879321489e-03    1.0000044531e+05
    1.1155996472e-03    1.0000625781e+05
    1.1432634201e-03    1.0000257031e+05
    1.1709230021e-03    9.9991820312e+04
    1.1985785095e-03    9.9993351562e+04
    1.2262313394e-03    1.0000113281e+05
    1.2538790470e-03    1.0001077344e+05
    1.2815232622e-03    1.0000609375e+05
    1.3091630535e-03    1.0000232031e+05
    1.3368004002e-03    1.0000506250e+05
    1.3644339051e-03    1.0000646094e+05
    1.3920635683e-03    1.0002135156e+05
    1.4196902048e-03    1.0005108594e+05
    1.4473132323e-03    1.0010203906e+05
    1.4749332331e-03    1.0019358594e+05
    1.5025498578e-03    1.0032603125e+05
    1.5301633393e-03    1.0051600781e+05
    1.5577742597e-03    1.0077330469e+05
    1.5853822697e-03    1.0110159375e+05
    1.6129877185e-03    1.0147218750e+05
    1.6405890929e-03    1.0186661719e+05
    1.6681876732e-03    1.0225042969e+05
    1.6957829939e-03    1.0258865625e+05
    1.7233766848e-03    1.0286433594e+05
    1.7509678146e-03    1.0305578125e+05
    1.7785291420e-03    1.0314694531e+05
    1.8060547300e-03    1.0313758594e+05
    1.8335470231e-03    1.0305377344e+05
    1.8610082334e-03    1.0291312500e+05
    1.8884401070e-03    1.0274800781e+05
    1.9158447394e-03    1.0257913281e+05
    1.9432241097e-03    1.0241627344e+05
    1.9705800805e-03    1.0229264844e+05
    1.9979148638e-03    1.0222175000e+05
    2.0252298564e-03    1.0219371875e+05
    2.0525271539e-03    1.0221578906e+05
    2.0798076876e-03    1.0227280469e+05
    2.1070730872e-03    1.0234819531e+05
    2.1343247499e-03    1.0242165625e+05
    2.1615643054e-03    1.0247971094e+05
    2.1887931507e-03    1.0252316406e+05
    2.2160108201e-03    1.0254222656e+05
    2.2432196420e-03    1.0253822656e+05
    2.2704207804e-03    1.0251641406e+05
    2.2976147011e-03    1.0247882031e+05
    2.3248014040e-03    1.0244410156e+05
    2.3519827519e-03    1.0241447656e+05
    2.3791582789e-03    1.0239490625e+05
    2.4063293822e-03    1.0238610156e+05
    2.4334960617e-03    1.0238796875e+05
    2.4606597144e-03    1.0239827344e+05
    2.4878205732e-03    1.0241125000e+05
    2.5149781723e-03    1.0242742969e+05
    2.5421329774e-03    1.0244210156e+05
    2.5692859199e-03    1.0244402344e+05
    2.5964374654e-03    1.0244628125e+05
    2.6235871483e-03    1.0244318750e+05
    2.6507352013e-03    1.0243613281e+05
    2.6778825559e-03    1.0243402344e+05
    2.7050296776e-03    1.0242246094e+05
    2.7321761008e-03    1.0241585156e+05
    2.7593218256e-03    1.0241696875e+05
    2.7864677832e-03    1.0242066406e+05
    2.8136142064e-03    1.0242266406e+05
    2.8407603968e-03    1.0243364844e+05
    2.8679079842e-03    1.0244321094e+05
    2.8950548731e-03    1.0246182031e+05
    2.9222022276e-03    1.0248640625e+05
    2.9493502807e-03    1.0252271875e+05
    2.9764990322e-03    1.0257196094e+05
    3.0036487151e-03    1.0263417969e+05
    3.0307997949e-03    1.0271942969e+05
    3.0579508748e-03    1.0281933594e+05
    3.0851035845e-03    1.0291860156e+05
    3.1122572254e-03    1.0302497656e+05
    3.1394117977e-03    1.0311780469e+05
    3.1665677670e-03    1.0320122656e+05
    3.1937246677e-03    1.0326692969e+05
    3.2208829653e-03    1.0330077344e+05
    3.2480424270e-03    1.0331130469e+05
    3.2752046827e-03    1.0328696875e+05
    3.2952371985e-03    1.0325458594e+05
    3.3145032357e-03    1.0321821875e+05
    3.3336398192e-03    1.0318185156e+05
    3.3528339118e-03    1.0314638281e+05
    3.3720366191e-03    1.0310914844e+05
    3.3912549261e-03    1.0306517969e+05
    3.4104890656e-03    1.0301819531e+05
    3.4297339153e-03    1.0297216406e+05
    3.4486323129e-03    1.0293064844e+05
    3.4671388566e-03    1.0287950000e+05
    3.4854323603e-03    1.0283097656e+05
    3.5036695190e-03    1.0276943750e+05
    3.5219141282e-03    1.0270602344e+05
    3.5401545465e-03    1.0263731250e+05
    3.5583588760e-03    1.0256456250e+05
    3.5765271168e-03    1.0249303906e+05
    3.5946895368e-03    1.0242833594e+05
    3.6139658187e-03    1.0237061719e+05
    3.6330535077e-03    1.0232284375e+05
    3.6521453876e-03    1.0228087500e+05
    3.6699753255e-03    1.0225128125e+05
    3.6875614896e-03    1.0223292969e+05
    3.7050142419e-03    1.0221108594e+05
    3.7224807311e-03    1.0219187500e+05
    3.7400643341e-03    1.0217933594e+05
    3.7577797193e-03    1.0216875000e+05
    3.7755726371e-03    1.0215835156e+05
    3.7933769636e-03    1.0214293750e+05
    3.8111612666e-03    1.0213850781e+05
    3.8289318327e-03    1.0213596094e+05
    3.8467168342e-03    1.0212764844e+05
    3.8645383902e-03    1.0212074219e+05
    3.8824023213e-03    1.0211232031e+05
    3.9002960548e-03    1.0209986719e+05
    3.9182156324e-03    1.0208403125e+05
    3.9361710660e-03    1.0207396094e+05
    3.9541716687e-03    1.0205690625e+05
    3.9733103476e-03    1.0203211719e+05
    3.9924201556e-03    1.0201519531e+05
    4.0104058571e-03    1.0200608594e+05
    4.0284004062e-03    1.0198930469e+05
    4.0464363992e-03    1.0198375781e+05
    4.0656095371e-03    1.0197402344e+05
    4.0847789496e-03    1.0196503906e+05
    4.1039343923e-03    1.0196022656e+05
    4.1219722480e-03    1.0195703906e+05
    4.1400394402e-03    1.0194515625e+05
    4.1591953486e-03    1.0193830469e+05
    4.1784178466e-03    1.0193241406e+05
    4.1976389475e-03    1.0192225781e+05
    4.2168586515e-03    1.0191566406e+05
    4.2360713705e-03    1.0190978125e+05
    4.2552771047e-03    1.0189939844e+05
    4.2744791135e-03    1.0188871094e+05
    4.2936825193e-03    1.0187792969e+05
    4.3128933758e-03    1.0186462500e+05
    4.3321144767e-03    1.0185294531e+05
    4.3513495475e-03    1.0183587500e+05
    4.3705995195e-03    1.0181749219e+05
    4.3898657896e-03    1.0180141406e+05
    4.4091497548e-03    1.0178380469e+05
    4.4284537435e-03    1.0175560156e+05
    4.4477786869e-03    1.0172196094e+05
    4.4671236537e-03    1.0167672656e+05
    4.4864914380e-03    1.0162133594e+05
    4.5058806427e-03    1.0156096094e+05
    4.5252908021e-03    1.0148464844e+05
    4.5447219163e-03    1.0140732031e+05
    4.5641721226e-03    1.0132124219e+05
    4.5836409554e-03    1.0121500781e+05
    4.6031279489e-03    1.0110278125e+05
    4.6226321720e-03    1.0098753906e+05
    4.6421540901e-03    1.0086156250e+05
    4.6616927721e-03    1.0073713281e+05
    4.6812482178e-03    1.0061211719e+05
    4.7008208930e-03    1.0049396875e+05
    4.7204112634e-03    1.0039425781e+05
    4.7400193289e-03    1.0030663281e+05
    4.7596455552e-03    1.0023316406e+05
    4.7792894766e-03    1.0018514844e+05
    4.7989510931e-03    1.0015852344e+05
    4.8186304048e-03    1.0014256250e+05
    4.8383255489e-03    1.0015500000e+05
    4.8580355942e-03    1.0018591406e+05
    4.8777610064e-03    1.0023136719e+05
    4.8975008540e-03    1.0028596094e+05
    4.9172551371e-03    1.0034886719e+05
    4.9370229244e-03    1.0041090625e+05
    4.9568060786e-03    1.0046757031e+05
    4.9766036682e-03    1.0052971094e+05
    4.9964170903e-03    1.0057522656e+05
    5.0162458792e-03    1.0061385156e+05
    5.0360900350e-03    1.0065110156e+05
    5.0559476949e-03    1.0066691406e+05
    5.0758207217e-03    1.0067902344e+05
    5.0957072526e-03    1.0068312500e+05
    5.1156077534e-03    1.0067716406e+05
    5.1355226897e-03    1.0066524219e+05
    5.1554525271e-03    1.0065053906e+05
    5.1753963344e-03    1.0063284375e+05
    5.1953555085e-03    1.0061536719e+05
    5.2153295837e-03    1.0059893750e+05
    5.2353194915e-03    1.0058110156e+05
    5.2553247660e-03    1.0057508594e+05
    5.2753463387e-03    1.0056899219e+05
    5.2953832783e-03    1.0057035156e+05
    5.3154369816e-03    1.0057407031e+05
    5.3355065174e-03    1.0057821094e+05
    5.3555918857e-03    1.0059221094e+05
    5.3756926209e-03    1.0060853906e+05
    5.3958082572e-03    1.0061525000e+05
    5.4159392603e-03    1.0062677344e+05
    5.4360851645e-03    1.0063816406e+05
    5.4562464356e-03    1.0064908594e+05
    5.4764230736e-03    1.0065484375e+05
    5.4966160096e-03    1.0066562500e+05
    5.5168238468e-03    1.0066877344e+05
    5.5370470509e-03    1.0067103125e+05
    5.5572865531e-03    1.0067366406e+05
    5.5775423534e-03    1.0066894531e+05
    5.5978130549e-03    1.0066832031e+05
    5.6181000546e-03    1.0067052344e+05
    5.6384028867e-03    1.0067303125e+05
    5.6587206200e-03    1.0067527344e+05
    5.6790532544e-03    1.0067765625e+05
    5.6994007900e-03    1.0068018750e+05
    5.7197632268e-03    1.0068302344e+05
    5.7401410304e-03    1.0068509375e+05
    5.7605337352e-03    1.0069086719e+05
    5.7809422724e-03    1.0069227344e+05
    5.8013652451e-03    1.0069708594e+05
    5.8218040504e-03    1.0070071875e+05
    5.8422577567e-03    1.0070441406e+05
    5.8627268299e-03    1.0070822656e+05
    5.8832112700e-03    1.0071211719e+05
    5.9037101455e-03    1.0072405469e+05
    5.9242248535e-03    1.0072859375e+05
    5.9447535314e-03    1.0073066406e+05
    5.9641525149e-03    1.0073692969e+05
    5.9830932878e-03    1.0073996094e+05
    6.0020405799e-03    1.0074485156e+05
    6.0210367665e-03    1.0075008594e+05
    6.0400799848e-03    1.0076403906e+05
    6.0591096990e-03    1.0076862500e+05
    6.0781282373e-03    1.0077333594e+05
    6.0972142965e-03    1.0077885156e+05
    6.1162756756e-03    1.0079774219e+05
    6.1353649944e-03    1.0082766406e+05
    6.1544459313e-03    1.0087639844e+05
    6.1734300107e-03    1.0097621875e+05
    6.1924448237e-03    1.0118697656e+05
    6.2115197070e-03    1.0162316406e+05
    6.2306127511e-03    1.0252872656e+05
    6.2497169711e-03    1.0433300781e+05
    6.2688281760e-03    1.0765774219e+05
    6.2879407778e-03    1.1319078125e+05
    6.3070552424e-03    1.2132346094e+05
    6.3261794858e-03    1.3177770312e+05
    6.3453060575e-03    1.4331176562e+05
    6.3644465990e-03    1.5414332812e+05
    6.3835908659e-03    1.6260750000e+05
    6.4027444459e-03    1.6790943750e+05
    6.4219115302e-03    1.7022351562e+05
    6.4410855994e-03    1.7032321875e+05
    6.4602680504e-03    1.6917732812e+05
    6.4794607460e-03    1.6757839062e+05
    6.4986641519e-03    1.6605226562e+05
    6.5178787336e-03    1.6474646875e+05
    6.5371058881e-03    1.6355707812e+05
    6.5563363023e-03    1.6231537500e+05
    6.5755699761e-03    1.6091842188e+05
    6.5948092379e-03    1.5932373438e+05
    6.6140629351e-03    1.5756176562e+05
    6.6333152354e-03    1.5571709375e+05
    6.6525745206e-03    1.5385739062e+05
    6.6718445159e-03    1.5205048438e+05
    6.6911154427e-03    1.5033078125e+05
    6.7104012705e-03    1.4871012500e+05
    6.7296870984e-03    1.4716837500e+05
    6.7489854991e-03    1.4568301562e+05
    6.7682852969e-03    1.4422779688e+05
    6.7875892855e-03    1.4279401562e+05
    6.8069072440e-03    1.4139718750e+05
    6.8262196146e-03    1.4003862500e+05
    6.8455408327e-03    1.3874495312e+05
    6.8648783490e-03    1.3752900000e+05
    6.8842126057e-03    1.3639276562e+05
    6.9035501219e-03    1.3532701562e+05
    6.9228983484e-03    1.3432262500e+05
    6.9422605447e-03    1.3337684375e+05
    6.9616222754e-03    1.3248542188e+05
    6.9809844717e-03    1.3164521875e+05
    7.0003494620e-03    1.3085074219e+05
    7.0197195746e-03    1.3010158594e+05
    7.0390999317e-03    1.2938361719e+05
    7.0584909990e-03    1.2870232031e+05
    7.0778946392e-03    1.2804786719e+05
    7.0973108523e-03    1.2742952344e+05
    7.1167377755e-03    1.2683909375e+05
    7.1361698210e-03    1.2626207031e+05
    7.1556069888e-03    1.2571392969e+05
    7.1750483476e-03    1.2517247656e+05
    7.1944966912e-03    1.2464387500e+05
    7.2139529511e-03    1.2413115625e+05
    7.2334166616e-03    1.2363933594e+05
    7.2528840974e-03    1.2317047656e+05
    7.2723543271e-03    1.2273218750e+05
    7.2918278165e-03    1.2232160156e+05
    7.3113050312e-03    1.2193758594e+05
    7.3307845742e-03    1.2157278125e+05
    7.3502692394e-03    1.2123372656e+05
    7.3697618209e-03    1.2091460156e+05
    7.3892641813e-03    1.2061283594e+05
    7.4087800458e-03    1.2033013281e+05
    7.4282912537e-03    1.2006017969e+05
    7.4477996677e-03    1.1980962500e+05
    7.4673094787e-03    1.1957803906e+05
    7.4868267402e-03    1.1934981250e+05
    7.5063589029e-03    1.1913262500e+05
    7.5258887373e-03    1.1892964844e+05
    7.5454111211e-03    1.1873828906e+05
    7.5649353676e-03    1.1856369531e+05
    7.5844703242e-03    1.1839891406e+05
    7.6040057465e-03    1.1824391406e+05
    7.6235276647e-03    1.1810289844e+05
    7.6430505142e-03    1.1797178906e+05
    7.6625877991e-03    1.1785810156e+05
    7.6821087860e-03    1.1775871094e+05
    7.7016241848e-03    1.1766646875e+05
    7.7211544849e-03    1.1758943750e+05
    7.7406810597e-03    1.1752372656e+05
    7.7602043748e-03    1.1746075781e+05
    7.7797495760e-03    1.1740450000e+05
    7.7992938459e-03    1.1734759375e+05
    7.8188432381e-03    1.1728049219e+05
    7.8384252265e-03    1.1720692969e+05
    7.8580006957e-03    1.1711614844e+05
    7.8775910661e-03    1.1701337500e+05
    7.8972103074e-03    1.1689115625e+05
    7.9168286175e-03    1.1674955469e+05
    7.9364804551e-03    1.1658791406e+05
    7.9561360180e-03    1.1640902344e+05
    7.9758102074e-03    1.1620993750e+05
    7.9955114052e-03    1.1599366406e+05
    8.0152126029e-03    1.1576563281e+05
    8.0349491909e-03    1.1552652344e+05
    8.0546662211e-03    1.1527162500e+05
    8.0743944272e-03    1.1500528125e+05
    8.0941170454e-03    1.1473108594e+05
    8.1138620153e-03    1.1445091406e+05
    8.1336386502e-03    1.1417278906e+05
    8.1534720957e-03    1.1389422656e+05
    8.1733558327e-03    1.1362052344e+05
    8.1932730973e-03    1.1335739844e+05
    8.2132071257e-03    1.1310441406e+05
    8.2330890000e-03    1.1286765625e+05
    8.2529615611e-03    1.1264843750e+05
    8.2727763802e-03    1.1245746875e+05
    8.2926023751e-03    1.1228694531e+05
    8.3124246448e-03    1.1215150781e+05
    8.3322748542e-03    1.1203813281e+05
    8.3521194756e-03    1.1194955469e+05
    8.3719678223e-03    1.1188852344e+05
    8.3917891607e-03    1.1184927344e+05
    8.4116021171e-03    1.1182933594e+05
    8.4314141423e-03    1.1182513281e+05
    8.4512168542e-03    1.1183177344e+05
    8.4710381925e-03    1.1184571094e+05
    8.4908353165e-03    1.1186093750e+05
    8.5106678307e-03    1.1187043750e+05
    8.5304882377e-03    1.1187666406e+05
    8.5503393784e-03    1.1186758594e+05
    8.5699046031e-03    1.1185617969e+05
    8.5892248899e-03    1.1183285156e+05
    8.6083402857e-03    1.1179097656e+05
    8.6272666231e-03    1.1173980469e+05
    8.6460309103e-03    1.1167908594e+05
    8.6646731943e-03    1.1160678906e+05
    8.6832325906e-03    1.1153028906e+05
    8.7017398328e-03    1.1145103125e+05
    8.7202098221e-03    1.1137146094e+05
    8.7386453524e-03    1.1129164844e+05
    8.7570473552e-03    1.1121378906e+05
    8.7753897533e-03    1.1113383594e+05
    8.7936492637e-03    1.1105938281e+05
    8.8118780404e-03    1.1098478125e+05
    8.8300397620e-03    1.1091197656e+05
    8.8481390849e-03    1.1084946875e+05
    8.8662039489e-03    1.1078746094e+05
    8.8842641562e-03    1.1073207031e+05
    8.9023411274e-03    1.1068753125e+05
    8.9204348624e-03    1.1064389844e+05
    8.9385388419e-03    1.1060337500e+05
    8.9566456154e-03    1.1056721094e+05
    8.9747514576e-03    1.1053566406e+05
    8.9928600937e-03    1.1050203906e+05
    9.0109808370e-03    1.1047066406e+05
    9.0291155502e-03    1.1044277344e+05
    9.0472688898e-03    1.1041628906e+05
    9.0654399246e-03    1.1039139844e+05
    9.0836230665e-03    1.1037062500e+05
    9.1018192470e-03    1.1035353125e+05
    9.1200266033e-03    1.1032971094e+05
    9.1382460669e-03    1.1030672656e+05
    9.1564757749e-03    1.1028149219e+05
    9.1747231781e-03    1.1025715625e+05
    9.1929892078e-03    1.1023193750e+05
    9.2112747952e-03    1.1020562500e+05
    9.2295790091e-03    1.1017717969e+05
    9.2479009181e-03    1.1014222656e+05
    9.2662386596e-03    1.1011090625e+05
    9.2845931649e-03    1.1007521094e+05
    9.3029672280e-03    1.1003611719e+05
    9.3213599175e-03    1.0998921875e+05
    9.3397712335e-03    1.0993561719e+05
    9.3582011759e-03    1.0987953906e+05
    9.3766497448e-03    1.0981633594e+05
    9.3951150775e-03    1.0974877344e+05
    9.4135999680e-03    1.0967910156e+05
    9.4321016222e-03    1.0960493750e+05
    9.4506228343e-03    1.0952210156e+05
    9.4691645354e-03    1.0943528906e+05
    9.4877239317e-03    1.0934677344e+05
    9.5063010231e-03    1.0925889844e+05
    9.5248948783e-03    1.0916828125e+05
    9.5435054973e-03    1.0908178125e+05
    9.5621328801e-03    1.0899778906e+05
    9.5807760954e-03    1.0892252344e+05
    9.5994332805e-03    1.0884553906e+05
    9.6181081608e-03    1.0877150781e+05
    9.6367979422e-03    1.0870080469e+05
    9.6555035561e-03    1.0863478906e+05
    9.6742231399e-03    1.0856752344e+05
    9.6929576248e-03    1.0849982031e+05
    9.7117051482e-03    1.0842672656e+05
    9.7304685041e-03    1.0835152344e+05
    9.7492448986e-03    1.0828075781e+05
    9.7680361941e-03    1.0820391406e+05
    9.7868405282e-03    1.0812228125e+05
    9.8056588322e-03    1.0804934375e+05
    9.8244920373e-03    1.0796602344e+05
    9.8433364183e-03    1.0788332031e+05
    9.8621929064e-03    1.0780924219e+05
    9.8810633644e-03    1.0772772656e+05
    9.8999459296e-03    1.0765263281e+05
    9.9188406020e-03    1.0757683594e+05
    9.9377483130e-03    1.0750735156e+05
    9.9566690624e-03    1.0744474219e+05
    9.9756028503e-03    1.0737713281e+05
    9.9945487455e-03    1.0731288281e+05
    1.0013507679e-02    1.0725424219e+05
    1.0032479651e-02    1.0720055469e+05
    1.0051463731e-02    1.0715271094e+05
    1.0070459917e-02    1.0710569531e+05
    1.0089469142e-02    1.0706485156e+05
    1.0108492337e-02    1.0702072656e+05
    1.0127528571e-02    1.0697255469e+05
    1.0146577843e-02    1.0692175000e+05
    1.0165639222e-02    1.0686538281e+05
    1.0184712708e-02    1.0681234375e+05
    1.0203798302e-02    1.0675394531e+05
    1.0222896002e-02    1.0669471875e+05
    1.0242006741e-02    1.0663964844e+05
    1.0261129588e-02    1.0658491406e+05
    1.0280264542e-02    1.0652421094e+05
    1.0299413465e-02    1.0646258594e+05
    1.0318575427e-02    1.0639878125e+05
    1.0337748565e-02    1.0633935156e+05
    1.0356934741e-02    1.0627691406e+05
    1.0376133956e-02    1.0620955469e+05
    1.0395346209e-02    1.0613850000e+05
    1.0414571501e-02    1.0606614844e+05
    1.0433809832e-02    1.0598143750e+05
    1.0453061201e-02    1.0588989844e+05
    1.0472324677e-02    1.0579610156e+05
    1.0491601191e-02    1.0569621094e+05
    1.0510892607e-02    1.0560317969e+05
    1.0530196130e-02    1.0549341406e+05
    1.0549513623e-02    1.0538435156e+05
    1.0568842292e-02    1.0527571094e+05
    1.0588183999e-02    1.0516603906e+05
    1.0607538745e-02    1.0505896094e+05
    1.0626907460e-02    1.0495946094e+05
    1.0646289214e-02    1.0487108594e+05
    1.0665684007e-02    1.0478650000e+05
    1.0685092770e-02    1.0470971094e+05
    1.0704516433e-02    1.0464932031e+05
    1.0723951273e-02    1.0459209375e+05
    1.0743400082e-02    1.0454615625e+05
    1.0762862861e-02    1.0450828906e+05
    1.0782338679e-02    1.0448016406e+05
    1.0801829398e-02    1.0445828125e+05
    1.0821334086e-02    1.0443502344e+05
    1.0840852745e-02    1.0441378125e+05
    1.0860386305e-02    1.0439071094e+05
    1.0879932903e-02    1.0435638281e+05
    1.0899493471e-02    1.0432789844e+05
    1.0919069871e-02    1.0428499219e+05
    1.0938662104e-02    1.0423775000e+05
    1.0958270170e-02    1.0418503906e+05
    1.0977892205e-02    1.0413700781e+05
    1.0997531936e-02    1.0407933594e+05
    1.1017187499e-02    1.0402588281e+05
    1.1036860757e-02    1.0396937500e+05
    1.1056551710e-02    1.0391605469e+05
    1.1076259427e-02    1.0386177344e+05
    1.1095987633e-02    1.0380459375e+05
    1.1115733534e-02    1.0374719531e+05
    1.1135498993e-02    1.0368650781e+05
    1.1155283079e-02    1.0362493750e+05
    1.1175086722e-02    1.0355483594e+05
    1.1194912717e-02    1.0348275781e+05
    1.1214758269e-02    1.0340353906e+05
    1.1234625243e-02    1.0331574219e+05
    1.1254511774e-02    1.0321860156e+05
    1.1274418794e-02    1.0313090625e+05
    1.1294347234e-02    1.0303064844e+05
    1.1314296164e-02    1.0293566406e+05
    1.1334266514e-02    1.0283234375e+05
    1.1354257353e-02    1.0272166406e+05
    1.1374268681e-02    1.0260302344e+05
    1.1394302361e-02    1.0247521094e+05
    1.1414355598e-02    1.0234924219e+05
    1.1434430256e-02    1.0222035156e+05
    1.1454525404e-02    1.0208902344e+05
    1.1474640109e-02    1.0196159375e+05
    1.1494777165e-02    1.0182869531e+05
    1.1514934711e-02    1.0170097656e+05
    1.1535113677e-02    1.0157428125e+05
    1.1555313133e-02    1.0145044531e+05
    1.1575534008e-02    1.0133841406e+05
    1.1595774442e-02    1.0123753906e+05
    1.1616035365e-02    1.0114883594e+05
    1.1636316776e-02    1.0106564844e+05
    1.1656619608e-02    1.0099800781e+05
    1.1676942930e-02    1.0094090625e+05
    1.1697287671e-02    1.0089166406e+05
    1.1717652902e-02    1.0085871875e+05
    1.1738038622e-02    1.0083303906e+05
    1.1758443899e-02    1.0082117969e+05
    1.1778870597e-02    1.0081783594e+05
    1.1799318716e-02    1.0082418750e+05
    1.1819788255e-02    1.0084588281e+05
    1.1840280145e-02    1.0087911719e+05
    1.1860790662e-02    1.0093453125e+05
    1.1881321669e-02    1.0100796875e+05
    1.1901874095e-02    1.0111512500e+05
    1.1922447011e-02    1.0125750781e+05
    1.1943042278e-02    1.0145253906e+05
    1.1963658035e-02    1.0171494531e+05
    1.1984295212e-02    1.0206757031e+05
    1.2004952878e-02    1.0252783594e+05
    1.2025631964e-02    1.0311771094e+05
    1.2046331540e-02    1.0385317969e+05
    1.2067052536e-02    1.0474442969e+05
    1.2087795883e-02    1.0577952344e+05
    1.2108558789e-02    1.0692740625e+05
    1.2129344046e-02    1.0814313281e+05
    1.2150149792e-02    1.0933668750e+05
    1.2170976959e-02    1.1043210156e+05
    1.2191825546e-02    1.1134203906e+05
    1.2212695554e-02    1.1200309375e+05
    1.2233586982e-02    1.1238247656e+05
    1.2254500762e-02    1.1247635156e+05
    1.2275436893e-02    1.1230764844e+05
    1.2296394445e-02    1.1191997656e+05
    1.2317374349e-02    1.1136959375e+05
    1.2338375673e-02    1.1070746094e+05
    1.2359398417e-02    1.0998958594e+05
    1.2380442582e-02    1.0927546875e+05
    1.2401508167e-02    1.0860678906e+05
    1.2422595173e-02    1.0802331250e+05
    1.2443703599e-02    1.0754588281e+05
    1.2464834377e-02    1.0717000781e+05
    1.2485986575e-02    1.0686155469e+05
    1.2507158332e-02    1.0658938281e+05
    1.2528351508e-02    1.0630457031e+05
    1.2549565174e-02    1.0597158594e+05
    1.2570801191e-02    1.0557669531e+05
    1.2592058629e-02    1.0511916406e+05
    1.2613337487e-02    1.0461734375e+05
    1.2634636834e-02    1.0409303906e+05
    1.2655957602e-02    1.0355916406e+05
    1.2677297927e-02    1.0303522656e+05
    1.2698660605e-02    1.0254927344e+05
    1.2720043771e-02    1.0210587500e+05
    1.2741449289e-02    1.0172518750e+05
    1.2762876227e-02    1.0140796094e+05
    1.2784325518e-02    1.0115530469e+05
    1.2805794366e-02    1.0094814844e+05
    1.2827285565e-02    1.0077572656e+05
    1.2848797254e-02    1.0062628125e+05
    1.2870330364e-02    1.0049158594e+05
    1.2891885825e-02    1.0037769531e+05
    1.2913462706e-02    1.0027075000e+05
    1.2935061008e-02    1.0018863281e+05
    1.2956679799e-02    1.0011777344e+05
    1.2978320010e-02    1.0006305469e+05
    1.2999981642e-02    1.0002339844e+05
    1.3021663763e-02    1.0000291406e+05
    1.3043368235e-02    1.0000392969e+05
    1.3065092266e-02    1.0002166406e+05
    1.3086837716e-02    1.0005075000e+05
    1.3108605519e-02    1.0007816406e+05
    1.3130392879e-02    1.0009564844e+05
    1.3152201660e-02    1.0009478906e+05
    1.3174032792e-02    1.0008083594e+05
    1.3195885345e-02    1.0004702344e+05
    1.3217759319e-02    1.0000068750e+05
    1.3239653781e-02    9.9944226562e+04
    1.3261569664e-02    9.9882468750e+04
    1.3283506967e-02    9.9831476562e+04
    1.3305463828e-02    9.9806648438e+04
    1.3327440247e-02    9.9807335938e+04
    1.3349435292e-02    9.9844187500e+04
    1.3371448033e-02    9.9909195312e+04
    1.3393475674e-02    9.9993164062e+04
    1.3415516354e-02    1.0009011719e+05
    1.3437564485e-02    1.0018087500e+05
    1.3459613547e-02    1.0026377344e+05
    1.3481658883e-02    1.0032818750e+05
    1.3503690250e-02    1.0037018750e+05
    1.3525702059e-02    1.0039875000e+05
    1.3547683135e-02    1.0040521875e+05
    1.3569628820e-02    1.0040393750e+05
    1.3591531664e-02    1.0039966406e+05
    1.3613392599e-02    1.0040544531e+05
    1.3635210693e-02    1.0042015625e+05
    1.3656994328e-02    1.0043606250e+05
    1.3678749092e-02    1.0046277344e+05
    1.3700488023e-02    1.0049503125e+05
    1.3722228818e-02    1.0052977344e+05
    1.3743981719e-02    1.0056192969e+05
    1.3765762560e-02    1.0059485156e+05
    1.3787578791e-02    1.0062243750e+05
    1.3809437864e-02    1.0064575000e+05
    1.3831341639e-02    1.0066372656e+05
    1.3853288256e-02    1.0066668750e+05
    1.3875273056e-02    1.0067728906e+05
    1.3897285797e-02    1.0067721875e+05
    1.3919321820e-02    1.0068558594e+05
    1.3941374607e-02    1.0068957031e+05
    1.3963440433e-02    1.0069853906e+05
    1.3985517435e-02    1.0070302344e+05
    1.4007603750e-02    1.0070796094e+05
    1.4029704034e-02    1.0071964844e+05
    1.4051820152e-02    1.0072621094e+05
    1.4073957689e-02    1.0073913281e+05
    1.4096121304e-02    1.0075078125e+05
    1.4118315652e-02    1.0075202344e+05
    1.4140545391e-02    1.0074886719e+05
    1.4162814245e-02    1.0073946875e+05
    1.4185124077e-02    1.0073108594e+05
    1.4207473956e-02    1.0071825781e+05
    1.4229862019e-02    1.0070284375e+05
    1.4252286404e-02    1.0068462500e+05
    1.4274741523e-02    1.0066464844e+05
    1.4297228307e-02    1.0064471094e+05
    1.4319745824e-02    1.0062197656e+05
    1.4342290349e-02    1.0059725000e+05
    1.4364863746e-02    1.0057094531e+05
    1.4387467876e-02    1.0054546875e+05
    1.4410103671e-02    1.0051377344e+05
    1.4432771131e-02    1.0048857031e+05
    1.4455472119e-02    1.0045678906e+05
    1.4478209428e-02    1.0043121875e+05
    1.4500979334e-02    1.0040541406e+05
    1.4523783699e-02    1.0037975000e+05
    1.4546621591e-02    1.0035416406e+05
    1.4569494873e-02    1.0032667969e+05
    1.4592399821e-02    1.0030400781e+05
    1.4615339227e-02    1.0027703906e+05
    1.4638305642e-02    1.0025134375e+05
    1.4661304653e-02    1.0023243750e+05
    1.4684336260e-02    1.0020806250e+05
    1.4707398601e-02    1.0018005469e+05
    1.4730494469e-02    1.0014660156e+05
    1.4753622934e-02    1.0011459375e+05
    1.4776783995e-02    1.0008077344e+05
    1.4799979515e-02    1.0004578906e+05
    1.4823205769e-02    1.0000335156e+05
    1.4846466482e-02    9.9966460938e+04
    1.4869757928e-02    9.9924726562e+04
    1.4893081971e-02    9.9883773438e+04
    1.4916437678e-02    9.9844093750e+04
    1.4939822257e-02    9.9797914062e+04
    1.4963239431e-02    9.9755648438e+04
    1.4986685477e-02    9.9707093750e+04
    1.5010161325e-02    9.9667710938e+04
    1.5033668838e-02    9.9636648438e+04
    1.5057205223e-02    9.9598398438e+04
    1.5080772340e-02    9.9557148438e+04
    1.5104367398e-02    9.9524132812e+04
    1.5127992257e-02    9.9497929688e+04
    1.5151646920e-02    9.9470320312e+04
    1.5175330453e-02    9.9449039062e+04
    1.5199041925e-02    9.9439593750e+04
    1.5222782269e-02    9.9433867188e+04
    1.5246548690e-02    9.9438632812e+04
    1.5270343982e-02    9.9457820312e+04
    1.5294168144e-02    9.9480906250e+04
    1.5318016522e-02    9.9520460938e+04
    1.5341891907e-02    9.9568664062e+04
    1.5365792438e-02    9.9622210938e+04
    1.5389721841e-02    9.9679117188e+04
    1.5413676389e-02    9.9741054688e+04
    1.5437657945e-02    9.9808093750e+04
    1.5461664647e-02    9.9872062500e+04
    1.5485695563e-02    9.9937648438e+04
    1.5509752557e-02    1.0000321875e+05
    1.5533835627e-02    1.0006177344e+05
    1.5557944775e-02    1.0012090625e+05
    1.5582079068e-02    1.0017896094e+05
    1.5606240369e-02    1.0023867969e+05
    1.5630424023e-02    1.0029252344e+05
    1.5654634684e-02    1.0035060156e+05
    1.5678871423e-02    1.0041096094e+05
    1.5703132376e-02    1.0047767969e+05
    1.5727419406e-02    1.0054777344e+05
    1.5751728788e-02    1.0062025000e+05
    1.5776060522e-02    1.0069556250e+05
    1.5800418332e-02    1.0076035156e+05
    1.5824800357e-02    1.0082062500e+05
    1.5849204734e-02    1.0088802344e+05
    1.5873633325e-02    1.0095221094e+05
    1.5898084268e-02    1.0100846094e+05
    1.5922557563e-02    1.0105728125e+05
    1.5947058797e-02    1.0110550781e+05
    1.5971582383e-02    1.0114899219e+05
    1.5996130183e-02    1.0118891406e+05
    1.6020702198e-02    1.0123332031e+05
    1.6045298427e-02    1.0127725000e+05
    1.6069920734e-02    1.0131752344e+05
    1.6094569117e-02    1.0136044531e+05
    1.6119243577e-02    1.0140313281e+05
    1.6143942252e-02    1.0144828906e+05
    1.6168667004e-02    1.0149294531e+05
    1.6193419695e-02    1.0153168750e+05
    1.6218200326e-02    1.0157272656e+05
    1.6243007034e-02    1.0160817969e+05
    1.6267839819e-02    1.0164216406e+05
    1.6292702407e-02    1.0167325781e+05
    1.6317596659e-02    1.0169646094e+05
    1.6342513263e-02    1.0172555469e+05
    1.6367461532e-02    1.0174228906e+05
    1.6392435879e-02    1.0176399219e+05
    1.6417443752e-02    1.0178619531e+05
    1.6442479566e-02    1.0180391406e+05
    1.6467543319e-02    1.0181628906e+05
    1.6492636874e-02    1.0183611719e+05
    1.6517756507e-02    1.0185496094e+05
    1.6542907804e-02    1.0186921094e+05
    1.6568088904e-02    1.0188058594e+05
    1.6593271866e-02    1.0189914844e+05
    1.6618426889e-02    1.0191446094e+05
    1.6643559560e-02    1.0192506250e+05
    1.6668669879e-02    1.0193821094e+05
    1.6693757847e-02    1.0195492969e+05
    1.6718825325e-02    1.0196940625e+05
    1.6743874177e-02    1.0198541406e+05
    1.6768900678e-02    1.0198988281e+05
    1.6793908551e-02    1.0199612500e+05
    1.6818899661e-02    1.0200478906e+05
    1.6843874007e-02    1.0200941406e+05
    1.6868829727e-02    1.0200205469e+05
    1.6893770546e-02    1.0199060156e+05
    1.6918692738e-02    1.0196075000e+05
    1.6943598166e-02    1.0193565625e+05
    1.6968490556e-02    1.0189696094e+05
    1.6993366182e-02    1.0184472656e+05
    1.7018226907e-02    1.0179189844e+05
    1.7043072730e-02    1.0173180469e+05
    1.7067901790e-02    1.0166928906e+05
    1.7092714086e-02    1.0160947656e+05
    1.7117511481e-02    1.0154428906e+05
    1.7142292112e-02    1.0149544531e+05
    1.7167057842e-02    1.0143803906e+05
    1.7191808671e-02    1.0138802344e+05
    1.7216544598e-02    1.0135732031e+05
    1.7241263762e-02    1.0134722656e+05
    1.7265968025e-02    1.0134158594e+05
    1.7290659249e-02    1.0134674219e+05
    1.7315333709e-02    1.0136203125e+05
    1.7339993268e-02    1.0138634375e+05
    1.7364639789e-02    1.0142710156e+05
    1.7389267683e-02    1.0147556250e+05
    1.7413880676e-02    1.0153994531e+05
    1.7438478768e-02    1.0159587500e+05
    1.7463061959e-02    1.0166330469e+05
    1.7487626523e-02    1.0172806250e+05
    1.7512176186e-02    1.0179808594e+05
    1.7536709085e-02    1.0186719531e+05
    1.7561223358e-02    1.0194321094e+05
    1.7585720867e-02    1.0201139844e+05
    1.7610201612e-02    1.0207339844e+05
    1.7634663731e-02    1.0214139844e+05
    1.7659107223e-02    1.0219697656e+05
    1.7683532089e-02    1.0225549219e+05
    1.7707940191e-02    1.0231381250e+05
    1.7732329667e-02    1.0236535156e+05
    1.7756698653e-02    1.0241569531e+05
    1.7781050876e-02    1.0245833594e+05
    1.7805384472e-02    1.0251363281e+05
    1.7829699442e-02    1.0256940625e+05
    1.7853999510e-02    1.0263505469e+05
    1.7878280953e-02    1.0269982031e+05
    1.7902545631e-02    1.0277716406e+05
    1.7926793545e-02    1.0286369531e+05
    1.7951028422e-02    1.0295931250e+05
    1.7975246534e-02    1.0306278906e+05
    1.7999447882e-02    1.0316892969e+05
    1.8023636192e-02    1.0328012500e+05
    1.8047811463e-02    1.0338157031e+05
    1.8071975559e-02    1.0347212500e+05
    1.8096126616e-02    1.0354067969e+05
    1.8120266497e-02    1.0358332031e+05
    1.8144397065e-02    1.0359702344e+05
    1.8168520182e-02    1.0357610156e+05
    1.8192630261e-02    1.0352002344e+05
    1.8216732889e-02    1.0343447656e+05
    1.8240824342e-02    1.0330308594e+05
    1.8264908344e-02    1.0312958594e+05
    1.8288983032e-02    1.0292510156e+05
    1.8313048407e-02    1.0267918750e+05
    1.8337102607e-02    1.0242177344e+05
    1.8361147493e-02    1.0214613281e+05
    1.8385183066e-02    1.0186922656e+05
    1.8409207463e-02    1.0160516406e+05
    1.8433224410e-02    1.0136822656e+05
    1.8457230181e-02    1.0115865625e+05
    1.8481226638e-02    1.0097381250e+05
    1.8505210057e-02    1.0082364844e+05
    1.8529184163e-02    1.0071169531e+05
    1.8553148955e-02    1.0062189844e+05
    1.8577100709e-02    1.0056658594e+05
    1.8601041287e-02    1.0052681250e+05
    1.8624972552e-02    1.0050482031e+05
    1.8648892641e-02    1.0050059375e+05
    1.8672801554e-02    1.0050892969e+05
    1.8696699291e-02    1.0053371094e+05
    1.8720587716e-02    1.0057110156e+05
    1.8744463101e-02    1.0061422656e+05
    1.8768329173e-02    1.0067253906e+05
    1.8792184070e-02    1.0072863281e+05
    1.8816027790e-02    1.0079193750e+05
    1.8839860335e-02    1.0085802344e+05
    1.8863683566e-02    1.0092791406e+05
    1.8887493759e-02    1.0099738281e+05
    1.8911294639e-02    1.0106561719e+05
    1.8935086206e-02    1.0113221094e+05
    1.8958866596e-02    1.0119541406e+05
    1.8982635811e-02    1.0125231250e+05
    1.9006397575e-02    1.0130974219e+05
    1.9030146301e-02    1.0136080469e+05
    1.9053885713e-02    1.0141593750e+05
    1.9077615812e-02    1.0147456250e+05
    1.9101334736e-02    1.0154093750e+05
    1.9125042483e-02    1.0159910156e+05
    1.9148740917e-02    1.0166475000e+05
    1.9172428176e-02    1.0173591406e+05
    1.9196104258e-02    1.0180328906e+05
    1.9219771028e-02    1.0186983594e+05
    1.9243424758e-02    1.0193578125e+05
    1.9267069176e-02    1.0199419531e+05
    1.9290700555e-02    1.0204749219e+05
    1.9314322621e-02    1.0209735156e+05
    1.9337931648e-02    1.0214211719e+05
    1.9361529499e-02    1.0217978125e+05
    1.9385114312e-02    1.0221578125e+05
    1.9408687949e-02    1.0224647656e+05
    1.9432250410e-02    1.0227572656e+05
    1.9455801696e-02    1.0230268750e+05
    1.9479339942e-02    1.0233175781e+05
    1.9502865151e-02    1.0234935156e+05
    1.9526379183e-02    1.0236449219e+05
    1.9549878314e-02    1.0237703906e+05
    1.9573366269e-02    1.0238635156e+05
    1.9596841186e-02    1.0238974219e+05
    1.9620303065e-02    1.0239672656e+05
    1.9643751904e-02    1.0239886719e+05
    1.9667187706e-02    1.0239943750e+05
    1.9690606743e-02    1.0238850000e+05
    1.9714014605e-02    1.0238421094e+05
    1.9737409428e-02    1.0237762500e+05
    1.9760791212e-02    1.0237059375e+05
    1.9784159958e-02    1.0236063281e+05
    1.9807513803e-02    1.0235953125e+05
    1.9830854610e-02    1.0235186719e+05
    1.9854182377e-02    1.0234400781e+05
    1.9877497107e-02    1.0233427344e+05
    1.9900798798e-02    1.0232855469e+05
    1.9924087450e-02    1.0232166406e+05
    1.9947361201e-02    1.0231789844e+05
    1.9970623776e-02    1.0230831250e+05
    1.9993871450e-02    1.0230405469e+05
    2.0017107949e-02    1.0229860156e+05
    2.0040329546e-02    1.0228672656e+05
    2.0063538104e-02    1.0227831250e+05
    2.0086731762e-02    1.0227358594e+05
    2.0109914243e-02    1.0226641406e+05
    2.0133081824e-02    1.0226137500e+05
    2.0156236365e-02    1.0225717969e+05
    2.0179376006e-02    1.0224809375e+05
    2.0202504471e-02    1.0224183594e+05
    2.0225618035e-02    1.0222702344e+05
    2.0248720422e-02    1.0222050000e+05
    2.0271807909e-02    1.0221383594e+05
    2.0294882357e-02    1.0220233594e+05
    2.0317947492e-02    1.0219508594e+05
    2.0340997726e-02    1.0218750781e+05
    2.0364036784e-02    1.0217388281e+05
    2.0387060940e-02    1.0216637500e+05
    2.0410073921e-02    1.0215275000e+05
    2.0433073863e-02    1.0214452344e+05
    2.0456060767e-02    1.0213728906e+05
    2.0479036495e-02    1.0213041406e+05
    2.0501999184e-02    1.0212281250e+05
    2.0524948835e-02    1.0211503906e+05
    2.0547885448e-02    1.0210358594e+05
    2.0570809022e-02    1.0208953125e+05
    2.0593719557e-02    1.0208336719e+05
    2.0616617054e-02    1.0207447656e+05
    2.0639499649e-02    1.0207381250e+05
    2.0662369207e-02    1.0206121094e+05
    2.0685223863e-02    1.0205782031e+05
    2.0708063617e-02    1.0204041406e+05
    2.0730890334e-02    1.0203189844e+05
    2.0753700286e-02    1.0202144531e+05
    2.0776495337e-02    1.0201119531e+05
    2.0799275488e-02    1.0200122656e+05
    2.0822042599e-02    1.0199259375e+05
    2.0844791085e-02    1.0197274219e+05
    2.0867524669e-02    1.0196321875e+05
    2.0890241489e-02    1.0195206250e+05
    2.0912945271e-02    1.0194030469e+05
    2.0935632288e-02    1.0192841406e+05
    2.0958306268e-02    1.0192043750e+05
    2.0980965346e-02    1.0191268750e+05
    2.1003607661e-02    1.0190441406e+05
    2.1026238799e-02    1.0190727344e+05
    2.1048855036e-02    1.0189589844e+05
    2.1071458235e-02    1.0188935156e+05
    2.1094048396e-02    1.0187882031e+05
    2.1116625518e-02    1.0187502344e+05
    2.1139191464e-02    1.0187086719e+05
    2.1161744371e-02    1.0186111719e+05
    2.1184286103e-02    1.0185796094e+05
    2.1206818521e-02    1.0184093750e+05
    2.1229337901e-02    1.0183302344e+05
    2.1251846105e-02    1.0182519531e+05
    2.1274344996e-02    1.0181669531e+05
    2.1296832711e-02    1.0180653906e+05
    2.1319312975e-02    1.0178622656e+05
    2.1341778338e-02    1.0176510156e+05
    2.1364232525e-02    1.0175327344e+05
    2.1386675537e-02    1.0174207031e+05
    2.1409107372e-02    1.0173064844e+05
    2.1431528032e-02    1.0171986719e+05
    2.1453931928e-02    1.0170867969e+05
    2.1476324648e-02    1.0169858594e+05
    2.1498700604e-02    1.0168832031e+05
    2.1521063522e-02    1.0167906250e+05
    2.1543409675e-02    1.0166978906e+05
    2.1565740928e-02    1.0165980469e+05
    2.1588053554e-02    1.0165990625e+05
    2.1610351279e-02    1.0166178125e+05
    2.1632634103e-02    1.0166618750e+05
    2.1654898301e-02    1.0166560156e+05
    2.1677147597e-02    1.0167194531e+05
    2.1699378267e-02    1.0167360156e+05
    2.1721594036e-02    1.0168039844e+05
    2.1743793041e-02    1.0168414844e+05
    2.1765975282e-02    1.0168610156e+05
    2.1788140759e-02    1.0169372656e+05
    2.1810289472e-02    1.0169847656e+05
    2.1832419559e-02    1.0170291406e+05
    2.1854531020e-02    1.0170316406e+05
    2.1876627579e-02    1.0170855469e+05
    2.1898705512e-02    1.0170978125e+05
    2.1920768544e-02    1.0171594531e+05
    2.1942811087e-02    1.0171778906e+05
    2.1964838728e-02    1.0172885156e+05
    2.1986849606e-02    1.0172506250e+05
    2.2008845583e-02    1.0172225000e+05
    2.2030822933e-02    1.0172858594e+05
    2.2052785382e-02    1.0173049219e+05
    2.2074732929e-02    1.0173477344e+05
    2.2096665576e-02    1.0173683594e+05
    2.2118583322e-02    1.0173896094e+05
    2.2140489891e-02    1.0174685156e+05
    2.2162377834e-02    1.0174974219e+05
    2.2184254602e-02    1.0175027344e+05
    2.2206118330e-02    1.0175127344e+05
    2.2227969021e-02    1.0174953125e+05
    2.2249806672e-02    1.0175808594e+05
    2.2271629423e-02    1.0176260156e+05
    2.2293440998e-02    1.0175547656e+05
    2.2315241396e-02    1.0175724219e+05
    2.2337028757e-02    1.0175880469e+05
    2.2358803079e-02    1.0175213281e+05
    2.2380566224e-02    1.0175221094e+05
    2.2402318195e-02    1.0175328906e+05
    2.2424057126e-02    1.0175315625e+05
    2.2445784882e-02    1.0175397656e+05
    2.2467501462e-02    1.0175000781e+05
    2.2489206865e-02    1.0174460156e+05
    2.2510899231e-02    1.0174087500e+05
    2.2532582283e-02    1.0173783594e+05
    2.2554252297e-02    1.0173694531e+05
    2.2575911134e-02    1.0174230469e+05
    2.2597560659e-02    1.0174366406e+05
    2.2619199008e-02    1.0175014844e+05
    2.2640828043e-02    1.0175121094e+05
    2.2662445903e-02    1.0175933594e+05
    2.2684050724e-02    1.0175719531e+05
    2.2705646232e-02    1.0175991406e+05
    2.2727232426e-02    1.0176767969e+05
    2.2748809308e-02    1.0178202344e+05
    2.2770375013e-02    1.0179217969e+05
    2.2791929543e-02    1.0180321875e+05
    2.2813472897e-02    1.0181413281e+05
    2.2835006937e-02    1.0182546094e+05
    2.2856531665e-02    1.0183360156e+05
    2.2878047079e-02    1.0184091406e+05
    2.2899549454e-02    1.0185669531e+05
    2.2921044379e-02    1.0186459375e+05
    2.2942528129e-02    1.0186186719e+05
    2.2964000702e-02    1.0186802344e+05
    2.2985465825e-02    1.0187452344e+05
    2.3006917909e-02    1.0187366406e+05
    2.3028360680e-02    1.0187359375e+05
    2.3049792275e-02    1.0187671875e+05
    2.3071214557e-02    1.0188171094e+05
    2.3092625663e-02    1.0187986719e+05
    2.3114029318e-02    1.0187671094e+05
    2.3135419935e-02    1.0187046875e+05
    2.3156799376e-02    1.0186821094e+05
    2.3178169504e-02    1.0186600781e+05
    2.3199530318e-02    1.0185884375e+05
    2.3220879957e-02    1.0185834375e+05
    2.3242218420e-02    1.0185711719e+05
    2.3263547570e-02    1.0185572656e+05
    2.3284865543e-02    1.0185571094e+05
    2.3306174204e-02    1.0184778906e+05
    2.3327469826e-02    1.0184403906e+05
    2.3348756135e-02    1.0184286719e+05
    2.3370031267e-02    1.0184035156e+05
    2.3391297087e-02    1.0183893750e+05
    2.3412553594e-02    1.0183688281e+05
    2.3433798924e-02    1.0183546094e+05
    2.3455033079e-02    1.0183810156e+05
    2.3476256058e-02    1.0183696094e+05
    2.3497469723e-02    1.0183256250e+05
    2.3518672213e-02    1.0184113281e+05
    2.3539865389e-02    1.0184096094e+05
    2.3561049253e-02    1.0184119531e+05
    2.3582221940e-02    1.0185053906e+05
    2.3603385314e-02    1.0185186719e+05
    2.3624535650e-02    1.0186300781e+05
    2.3645676672e-02    1.0187078906e+05
    2.3666808382e-02    1.0187847656e+05
    2.3687927052e-02    1.0189202344e+05
    2.3709038273e-02    1.0189649219e+05
    2.3730138317e-02    1.0191159375e+05
    2.3751227185e-02    1.0192653125e+05
    2.3772306740e-02    1.0195164844e+05
    2.3793375120e-02    1.0196442969e+05
    2.3814432323e-02    1.0197796875e+05
    2.3835480213e-02    1.0199672656e+05
    2.3856516927e-02    1.0201632031e+05
    2.3877544329e-02    1.0203202344e+05
    2.3898560554e-02    1.0204836719e+05
    2.3919565603e-02    1.0206756250e+05
    2.3940561339e-02    1.0208202344e+05
    2.3961545900e-02    1.0210203906e+05
    2.3982519284e-02    1.0211810156e+05
    2.4003483355e-02    1.0212162500e+05
    2.4024436250e-02    1.0213508594e+05
    2.4045377970e-02    1.0214227344e+05
    2.4066310376e-02    1.0214864844e+05
    2.4087233469e-02    1.0215046094e+05
    2.4108145386e-02    1.0213949219e+05
    2.4129044265e-02    1.0213753906e+05
    2.4149935693e-02    1.0213071094e+05
    2.4170814082e-02    1.0211614844e+05
    2.4191683158e-02    1.0209741406e+05
    2.4212542921e-02    1.0207530469e+05
    2.4233391508e-02    1.0204310156e+05
    2.4254228920e-02    1.0199915625e+05
    2.4275057018e-02    1.0196060156e+05
    2.4295873940e-02    1.0191910156e+05
    2.4316681549e-02    1.0187965625e+05
    2.4337477982e-02    1.0183787500e+05
    2.4358265102e-02    1.0179857031e+05
    2.4379042909e-02    1.0176682031e+05
    2.4399809539e-02    1.0172871875e+05
    2.4420566857e-02    1.0170047656e+05
    2.4441312999e-02    1.0167886719e+05
    2.4462047964e-02    1.0166794531e+05
    2.4482775480e-02    1.0166558594e+05
    2.4503491819e-02    1.0167605469e+05
    2.4524198845e-02    1.0169943750e+05
    2.4544894695e-02    1.0172718750e+05
    2.4565581232e-02    1.0174950000e+05
    2.4586258456e-02    1.0178453906e+05
    2.4606924504e-02    1.0181212500e+05
    2.4627581239e-02    1.0184634375e+05
    2.4648228660e-02    1.0188021094e+05
    2.4668866768e-02    1.0191910156e+05
    2.4689495564e-02    1.0194984375e+05
    2.4710113183e-02    1.0197765625e+05
    2.4730721489e-02    1.0200800000e+05
    2.4751318619e-02    1.0203246094e+05
    2.4771906435e-02    1.0205488281e+05
    2.4792486802e-02    1.0208132031e+05
    2.4813055992e-02    1.0210035156e+05
    2.4833614007e-02    1.0211678906e+05
    2.4854162708e-02    1.0213446875e+05
    2.4874702096e-02    1.0214241406e+05
    2.4895232171e-02    1.0215733594e+05
    2.4915752932e-02    1.0216378906e+05
    2.4936262518e-02    1.0217986719e+05
    2.4956764653e-02    1.0219350781e+05
    2.4977253750e-02    1.0220846094e+05
    2.4997735396e-02    1.0221307031e+05
    2.5018205866e-02    1.0222634375e+05
    2.5038668886e-02    1.0223040625e+05
    2.5059120730e-02    1.0224314844e+05
    2.5079563260e-02    1.0224909375e+05
    2.5099996477e-02    1.0225514844e+05
    2.5120420381e-02    1.0226471875e+05
    2.5140833110e-02    1.0226500000e+05
    2.5161236525e-02    1.0227360156e+05
    2.5181630626e-02    1.0227181250e+05
    2.5202017277e-02    1.0226832031e+05
    2.5222390890e-02    1.0226480469e+05
    2.5242757052e-02    1.0225953125e+05
    2.5263112038e-02    1.0225264844e+05
    2.5283459574e-02    1.0224516406e+05
    2.5303795934e-02    1.0223637500e+05
    2.5324124843e-02    1.0222634375e+05
    2.5344440714e-02    1.0221565625e+05
    2.5364749134e-02    1.0220494531e+05
    2.5385048240e-02    1.0219197656e+05
    2.5405339897e-02    1.0217746094e+05
    2.5425618514e-02    1.0216738281e+05
    2.5445887819e-02    1.0215817969e+05
    2.5466147810e-02    1.0214858594e+05
    2.5486400351e-02    1.0213878906e+05
    2.5506639853e-02    1.0213050781e+05
    2.5526873767e-02    1.0212596875e+05
    2.5547094643e-02    1.0212328906e+05
    2.5567308068e-02    1.0212102344e+05
    2.5587510318e-02    1.0212316406e+05
    2.5607703254e-02    1.0212233594e+05
    2.5627886876e-02    1.0212546094e+05
    2.5648061186e-02    1.0212583594e+05
    2.5668226182e-02    1.0213517969e+05
    2.5688380003e-02    1.0214022656e+05
    2.5708526373e-02    1.0214850000e+05
    2.5728661567e-02    1.0215700781e+05
    2.5748789310e-02    1.0216128906e+05
    2.5768904015e-02    1.0217633594e+05
    2.5789011270e-02    1.0218227344e+05
    2.5809109211e-02    1.0219399219e+05
    2.5829195976e-02    1.0220032031e+05
    2.5849273428e-02    1.0220683594e+05
    2.5869343430e-02    1.0221699219e+05
    2.5889402255e-02    1.0222628906e+05
    2.5909451768e-02    1.0223216406e+05
    2.5929493830e-02    1.0223456250e+05
    2.5949522853e-02    1.0223569531e+05
    2.5969544426e-02    1.0224021094e+05
    2.5989556685e-02    1.0224416406e+05
    2.6009559631e-02    1.0224809375e+05
    2.6029553264e-02    1.0225035156e+05
    2.6049537584e-02    1.0225360156e+05
    2.6069512591e-02    1.0225638281e+05
    2.6089478284e-02    1.0225737500e+05
    2.6109432802e-02    1.0225303906e+05
    2.6129379869e-02    1.0224646094e+05
    2.6149315760e-02    1.0224514844e+05
    2.6169244200e-02    1.0224417969e+05
    2.6189163327e-02    1.0224355469e+05
    2.6209073141e-02    1.0224260156e+05
    2.6228975505e-02    1.0224072656e+05
    2.6248866692e-02    1.0223142969e+05
    2.6268748567e-02    1.0222722656e+05
    2.6288621128e-02    1.0222247656e+05
    2.6308484375e-02    1.0221378906e+05
    2.6328338310e-02    1.0220930469e+05
    2.6348184794e-02    1.0220578906e+05
    2.6368021965e-02    1.0220214844e+05
    2.6387847960e-02    1.0219956250e+05
    2.6407664642e-02    1.0219458594e+05
    2.6427472010e-02    1.0218990625e+05
    2.6447271928e-02    1.0218024219e+05
    2.6467062533e-02    1.0217413281e+05
    2.6486843824e-02    1.0216541406e+05
    2.6506617665e-02    1.0216008594e+05
    2.6526380330e-02    1.0215589844e+05
    2.6546133682e-02    1.0215683594e+05
    2.6565877721e-02    1.0215307031e+05
    2.6585612446e-02    1.0214043750e+05
    2.6605339721e-02    1.0213585156e+05
    2.6625057682e-02    1.0213831250e+05
    2.6644766331e-02    1.0213635156e+05
    2.6664465666e-02    1.0212997656e+05
    2.6684155688e-02    1.0212703125e+05
    2.6703836396e-02    1.0212583594e+05
    2.6723509654e-02    1.0212253906e+05
    2.6743173599e-02    1.0211897656e+05
    2.6762828231e-02    1.0211591406e+05
    2.6782475412e-02    1.0212266406e+05
    2.6802113280e-02    1.0212434375e+05
    2.6821739972e-02    1.0212983594e+05
    2.6841359213e-02    1.0213038281e+05
    2.6860967278e-02    1.0212982031e+05
    2.6880569756e-02    1.0212990625e+05
    2.6900164783e-02    1.0213009375e+05
    2.6919748634e-02    1.0212939844e+05
    2.6939325035e-02    1.0213363281e+05
    2.6958892122e-02    1.0213633594e+05
    2.6978449896e-02    1.0213805469e+05
    2.6997998357e-02    1.0213814844e+05
    2.7017539367e-02    1.0213896094e+05
    2.7037071064e-02    1.0214047656e+05
    2.7056595311e-02    1.0214062500e+05
    2.7076110244e-02    1.0214685156e+05
    2.7095617726e-02    1.0215083594e+05
    2.7115115896e-02    1.0214949219e+05
    2.7134604752e-02    1.0214821875e+05
    2.7154086158e-02    1.0214766406e+05
    2.7173558250e-02    1.0215419531e+05
    2.7193021029e-02    1.0215561719e+05
    2.7212476358e-02    1.0216224219e+05
    2.7231922373e-02    1.0215907031e+05
    2.7251357213e-02    1.0216524219e+05
    2.7270786464e-02    1.0216736719e+05
    2.7290204540e-02    1.0216658594e+05
    2.7309613302e-02    1.0217140625e+05
    2.7329014614e-02    1.0217231250e+05
    2.7348404750e-02    1.0217324219e+05
    2.7367785573e-02    1.0217535156e+05
    2.7387158945e-02    1.0217641406e+05
    2.7406521142e-02    1.0217866406e+05
    2.7425874025e-02    1.0217983594e+05
    2.7445219457e-02    1.0218224219e+05
    2.7464553714e-02    1.0218366406e+05
    2.7483878657e-02    1.0218574219e+05
    2.7503194287e-02    1.0218794531e+05
    2.7522502467e-02    1.0218894531e+05
    2.7541799471e-02    1.0219097656e+05
    2.7561087161e-02    1.0219222656e+05
    2.7580365539e-02    1.0219378906e+05
    2.7599634603e-02    1.0219102344e+05
    2.7618894354e-02    1.0218596875e+05
    2.7638144791e-02    1.0218511719e+05
    2.7657385916e-02    1.0218230469e+05
    2.7676619589e-02    1.0217340625e+05
    2.7695843950e-02    1.0217363281e+05
    2.7715058997e-02    1.0217735156e+05
    2.7734262869e-02    1.0217643750e+05
    2.7753459290e-02    1.0217234375e+05
    2.7772648260e-02    1.0217160156e+05
    2.7791827917e-02    1.0216946094e+05
    2.7810998261e-02    1.0216892969e+05
    2.7830159292e-02    1.0216546094e+05
    2.7849311009e-02    1.0216185156e+05
    2.7868455276e-02    1.0215814844e+05
    2.7887590230e-02    1.0215913281e+05
    2.7906717733e-02    1.0215914844e+05
    2.7925835922e-02    1.0216405469e+05
    2.7944946662e-02    1.0216405469e+05
    2.7964048088e-02    1.0216552344e+05
    2.7983140200e-02    1.0216674219e+05
    2.8002224863e-02    1.0217336719e+05
    2.8021300212e-02    1.0217512500e+05
    2.8040368110e-02    1.0217756250e+05
    2.8059426695e-02    1.0217853906e+05
    2.8078475967e-02    1.0218778125e+05
    2.8097519651e-02    1.0219166406e+05
    2.8116554022e-02    1.0219553906e+05
    2.8135580942e-02    1.0220391406e+05
    2.8154598549e-02    1.0221362500e+05
    2.8173606843e-02    1.0221978906e+05
    2.8192607686e-02    1.0222814844e+05
    2.8211599216e-02    1.0223666406e+05
    2.8230583295e-02    1.0224019531e+05
    2.8249559924e-02    1.0224377344e+05
    2.8268527240e-02    1.0224914844e+05
    2.8287487105e-02    1.0226221875e+05
    2.8306435794e-02    1.0227092969e+05
    2.8325378895e-02    1.0227803906e+05
    2.8344312683e-02    1.0228340625e+05
    2.8363237157e-02    1.0228415625e+05
    2.8382156044e-02    1.0229053906e+05
    2.8401065618e-02    1.0229680469e+05
    2.8419965878e-02    1.0230058594e+05
    2.8438858688e-02    1.0230081250e+05
    2.8457742184e-02    1.0230308594e+05
    2.8476616368e-02    1.0230624219e+05
    2.8495483100e-02    1.0231019531e+05
    2.8514338657e-02    1.0230683594e+05
    2.8533160686e-02    1.0230366406e+05
    2.8551930562e-02    1.0230408594e+05
    2.8570635244e-02    1.0230346094e+05
    2.8589271009e-02    1.0229589844e+05
    2.8607837856e-02    1.0229241406e+05
    2.8626350686e-02    1.0228952344e+05
    2.8644818813e-02    1.0228496875e+05
    2.8663259000e-02    1.0228218750e+05
    2.8681686148e-02    1.0226766406e+05
    2.8700113297e-02    1.0226322656e+05
    2.8718546033e-02    1.0224814844e+05
    2.8736986220e-02    1.0223966406e+05
    2.8755431995e-02    1.0223289844e+05
    2.8773877770e-02    1.0221641406e+05
    2.8792314231e-02    1.0220749219e+05
    2.8810730204e-02    1.0219992969e+05
    2.8829116374e-02    1.0219196094e+05
    2.8847465292e-02    1.0217960156e+05
    2.8865773231e-02    1.0217294531e+05
    2.8884036466e-02    1.0216566406e+05
    2.8902258724e-02    1.0215962500e+05
    2.8920443729e-02    1.0215130469e+05
    2.8938598931e-02    1.0214355469e+05
    2.8956729919e-02    1.0214341406e+05
    2.8974846005e-02    1.0213967969e+05
    2.8992949054e-02    1.0214099219e+05
    2.9011042789e-02    1.0213908594e+05
    2.9029129073e-02    1.0213912500e+05
    2.9047204182e-02    1.0214916406e+05
    2.9065268114e-02    1.0215088281e+05
    2.9083315283e-02    1.0215740625e+05
    2.9101338238e-02    1.0216466406e+05
    2.9119335115e-02    1.0216866406e+05
    2.9137304053e-02    1.0217216406e+05
    2.9155241325e-02    1.0218168750e+05
    2.9173148796e-02    1.0219133594e+05
    2.9191024601e-02    1.0220122656e+05
    2.9208874330e-02    1.0220700781e+05
    2.9226697981e-02    1.0221583594e+05
    2.9244501144e-02    1.0222132031e+05
    2.9262285680e-02    1.0222216406e+05
    2.9280053452e-02    1.0222459375e+05
    2.9297806323e-02    1.0223239844e+05
    2.9315544292e-02    1.0223683594e+05
    2.9333265498e-02    1.0224022656e+05
    2.9350971803e-02    1.0224364844e+05
    2.9368655756e-02    1.0224628906e+05
    2.9386319220e-02    1.0224339844e+05
    2.9403960332e-02    1.0224541406e+05
    2.9421577230e-02    1.0224782031e+05
    2.9439168051e-02    1.0224830469e+05
    2.9456734657e-02    1.0225266406e+05
    2.9474277049e-02    1.0225233594e+05
    2.9491795227e-02    1.0225349219e+05
    2.9509292915e-02    1.0225000000e+05
    2.9526771978e-02    1.0224966406e+05
    2.9544232413e-02    1.0225021094e+05
    2.9561674222e-02    1.0225156250e+05
    2.9579099268e-02    1.0224675000e+05
    2.9596509412e-02    1.0224649219e+05
    2.9613900930e-02    1.0224740625e+05
    2.9631273821e-02    1.0225022656e+05
    2.9648626223e-02    1.0225140625e+05
    2.9665958136e-02    1.0225564844e+05
    2.9683271423e-02    1.0225752344e+05
    2.9700560495e-02    1.0225952344e+05
    2.9717829078e-02    1.0225861719e+05
    2.9735075310e-02    1.0225828906e+05
    2.9752301052e-02    1.0226027344e+05
    2.9769508168e-02    1.0227121094e+05
    2.9786696658e-02    1.0227378906e+05
    2.9803866521e-02    1.0227633594e+05
    2.9821017757e-02    1.0227828906e+05
    2.9838152230e-02    1.0228077344e+05
    2.9855269939e-02    1.0227856250e+05
    2.9872370884e-02    1.0227796875e+05
    2.9889453202e-02    1.0228203125e+05
    2.9906518757e-02    1.0228837500e+05
    2.9923565686e-02    1.0228039844e+05
    2.9940593988e-02    1.0228159375e+05
    2.9957601801e-02    1.0228278125e+05
    2.9974590987e-02    1.0228453906e+05
    2.9991561547e-02    1.0228680469e+05
    3.0008511618e-02    1.0228716406e+05
    3.0025444925e-02    1.0228946875e+05
    3.0042361468e-02    1.0228503906e+05
    3.0059259385e-02    1.0227919531e+05
    3.0076142401e-02    1.0226855469e+05
    3.0093006790e-02    1.0226003906e+05
    3.0109854415e-02    1.0225321875e+05
    3.0126683414e-02    1.0225055469e+05
    3.0143497512e-02    1.0223711719e+05
    3.0160292983e-02    1.0223306250e+05
    3.0177071691e-02    1.0222647656e+05
    3.0193833634e-02    1.0221792969e+05
    3.0210576952e-02    1.0221078906e+05
    3.0227303505e-02    1.0220700000e+05
    3.0244011432e-02    1.0220312500e+05
    3.0260702595e-02    1.0219917969e+05
    3.0277376994e-02    1.0219464844e+05
    3.0294034630e-02    1.0218553906e+05
    3.0310675502e-02    1.0218150781e+05
    3.0327299610e-02    1.0218213281e+05
    3.0343905091e-02    1.0217783594e+05
    3.0360495672e-02    1.0217424219e+05
    3.0377071351e-02    1.0217096094e+05
    3.0393628404e-02    1.0217668750e+05
    3.0410168692e-02    1.0217425000e+05
    3.0426690355e-02    1.0217534375e+05
    3.0443195254e-02    1.0218108594e+05
    3.0459685251e-02    1.0218943750e+05
    3.0476156622e-02    1.0219057031e+05
    3.0492611229e-02    1.0220056250e+05
    3.0509050936e-02    1.0221144531e+05
    3.0525473878e-02    1.0222424219e+05
    3.0541881919e-02    1.0222736719e+05
    3.0558273196e-02    1.0223849219e+05
    3.0574647710e-02    1.0224522656e+05
    3.0591005459e-02    1.0224877344e+05
    3.0607348308e-02    1.0225709375e+05
    3.0623674393e-02    1.0226144531e+05
    3.0639985576e-02    1.0226939844e+05
    3.0656279996e-02    1.0227477344e+05
    3.0672557652e-02    1.0228040625e+05
    3.0688818544e-02    1.0228805469e+05
    3.0705062672e-02    1.0229572656e+05
    3.0721291900e-02    1.0229632031e+05
    3.0737506226e-02    1.0230127344e+05
    3.0753703788e-02    1.0230653906e+05
    3.0769886449e-02    1.0230852344e+05
    3.0786054209e-02    1.0230503906e+05
    3.0802207068e-02    1.0230864844e+05
    3.0818343163e-02    1.0231137500e+05
    3.0834466219e-02    1.0230575781e+05
    3.0850572512e-02    1.0230793750e+05
    3.0866663903e-02    1.0231053906e+05
    3.0882738531e-02    1.0230422656e+05
    3.0898798257e-02    1.0230565625e+05
    3.0914843082e-02    1.0230743750e+05
    3.0930871144e-02    1.0230953906e+05
    3.0946886167e-02    1.0230561719e+05
    3.0962884426e-02    1.0230127344e+05
    3.0978867784e-02    1.0230246094e+05
    3.0994836241e-02    1.0230284375e+05
    3.1010789797e-02    1.0230236719e+05
    3.1026728451e-02    1.0229296875e+05
    3.1042650342e-02    1.0229192969e+05
    3.1058559194e-02    1.0229071094e+05
    3.1074455008e-02    1.0228760156e+05
    3.1090334058e-02    1.0227977344e+05
    3.1106200069e-02    1.0227934375e+05
    3.1122051179e-02    1.0227890625e+05
    3.1137887388e-02    1.0227788281e+05
    3.1153710559e-02    1.0227672656e+05
    3.1169516966e-02    1.0227472656e+05
    3.1185310334e-02    1.0227253125e+05
    3.1201090664e-02    1.0226724219e+05
    3.1216854230e-02    1.0226040625e+05
    3.1232602894e-02    1.0225742969e+05
    3.1248336658e-02    1.0225456250e+05
    3.1264055520e-02    1.0225290625e+05
    3.1279761344e-02    1.0225078906e+05
    3.1295452267e-02    1.0224875781e+05
    3.1311132014e-02    1.0225149219e+05
    3.1326796860e-02    1.0224892969e+05
    3.1342446804e-02    1.0224215625e+05
    3.1358085573e-02    1.0224043750e+05
    3.1373709440e-02    1.0223871094e+05
    3.1389318407e-02    1.0223641406e+05
    3.1404916197e-02    1.0223540625e+05
    3.1420499086e-02    1.0223364844e+05
    3.1436067075e-02    1.0223860156e+05
    3.1451620162e-02    1.0224053906e+05
    3.1467158347e-02    1.0224411719e+05
    3.1482685357e-02    1.0224842969e+05
    3.1498193741e-02    1.0224891406e+05
    3.1513694674e-02    1.0224828906e+05
    3.1529176980e-02    1.0224763281e+05
    3.1544648111e-02    1.0224753906e+05
    3.1560108066e-02    1.0224758594e+05
    3.1575553119e-02    1.0225008594e+05
    3.1590986997e-02    1.0225287500e+05
    3.1606405973e-02    1.0225864844e+05
    3.1621813774e-02    1.0226006250e+05
    3.1637206674e-02    1.0226091406e+05
    3.1652588397e-02    1.0226175000e+05
    3.1667951494e-02    1.0225725000e+05
    3.1683307141e-02    1.0225302344e+05
    3.1698647887e-02    1.0225325000e+05
    3.1713977456e-02    1.0225282031e+05
    3.1729292125e-02    1.0225235156e+05
    3.1744595617e-02    1.0225302344e+05
    3.1759884208e-02    1.0225358594e+05
    3.1775161624e-02    1.0225346094e+05
    3.1790427864e-02    1.0224928906e+05
    3.1805675477e-02    1.0224896094e+05
    3.1820915639e-02    1.0224750781e+05
    3.1836140901e-02    1.0225246094e+05
    3.1851354986e-02    1.0225297656e+05
    3.1866557896e-02    1.0225258594e+05
    3.1881745905e-02    1.0225230469e+05
    3.1896922737e-02    1.0225287500e+05
    3.1912088394e-02    1.0226171094e+05
    3.1927239150e-02    1.0226477344e+05
    3.1942378730e-02    1.0226442969e+05
    3.1957507133e-02    1.0226178906e+05
    3.1972620636e-02    1.0225766406e+05
    3.1987726688e-02    1.0225809375e+05
    3.2002814114e-02    1.0225846875e+05
    3.2017890364e-02    1.0225880469e+05
    3.2032959163e-02    1.0225915625e+05
    3.2048013061e-02    1.0225950781e+05
    3.2063052058e-02    1.0225922656e+05
    3.2078083605e-02    1.0226071094e+05
    3.2093103975e-02    1.0226096094e+05
    3.2108109444e-02    1.0226121094e+05
    3.2123107463e-02    1.0226141406e+05
    3.2138090581e-02    1.0226215625e+05
    3.2153062522e-02    1.0226185156e+05
    3.2168023288e-02    1.0226146094e+05
    3.2182972878e-02    1.0226169531e+05
    3.2197911292e-02    1.0226142969e+05
    3.2212834805e-02    1.0226187500e+05
    3.2227750868e-02    1.0226478906e+05
    3.2242652029e-02    1.0226842969e+05
    3.2257542014e-02    1.0227381250e+05
    3.2272424549e-02    1.0227591406e+05
    3.2287292182e-02    1.0227213281e+05
    3.2302148640e-02    1.0226900000e+05
    3.2316997647e-02    1.0226925000e+05
    3.2331831753e-02    1.0227013281e+05
    3.2346658409e-02    1.0227802344e+05
    3.2361470163e-02    1.0228132031e+05
    3.2376270741e-02    1.0228232031e+05
    3.2391063869e-02    1.0227408594e+05
    3.2405842096e-02    1.0227553906e+05
    3.2420612872e-02    1.0228575000e+05
    3.2435368747e-02    1.0228622656e+05
    3.2450113446e-02    1.0228433594e+05
    3.2464850694e-02    1.0228296875e+05
    3.2479573041e-02    1.0228142969e+05
    3.2494287938e-02    1.0228047656e+05
    3.2508991659e-02    1.0229056250e+05
    3.2523684204e-02    1.0229156250e+05
    3.2538365573e-02    1.0229257031e+05
    3.2553035766e-02    1.0229358594e+05
    3.2567698509e-02    1.0228994531e+05
    3.2582346350e-02    1.0228846094e+05
    3.2596986741e-02    1.0228872656e+05
    3.2611619681e-02    1.0229191406e+05
    3.2626237720e-02    1.0229277344e+05
    3.2640848309e-02    1.0229071875e+05
    3.2655447721e-02    1.0228975781e+05
    3.2670035958e-02    1.0229178906e+05
    3.2684613019e-02    1.0229508594e+05
    3.2699178904e-02    1.0230297656e+05
    3.2713737339e-02    1.0229539844e+05
    3.2728284597e-02    1.0229637500e+05
    3.2742820680e-02    1.0229975781e+05
    3.2757349312e-02    1.0230075000e+05
    3.2771866769e-02    1.0229939844e+05
    3.2786373049e-02    1.0229965625e+05
    3.2800871879e-02    1.0230096094e+05
    3.2815355808e-02    1.0230160156e+05
    3.2829832286e-02    1.0230092969e+05
    3.2844301313e-02    1.0230128125e+05
    3.2858755440e-02    1.0230150000e+05
    3.2873202115e-02    1.0229707031e+05
    3.2887637615e-02    1.0229703906e+05
    3.2902065665e-02    1.0229693750e+05
    3.2916482538e-02    1.0229150781e+05
    3.2930891961e-02    1.0229184375e+05
    3.2945290208e-02    1.0229153906e+05
    3.2959677279e-02    1.0229128906e+05
    3.2974056900e-02    1.0229103906e+05
    3.2988425344e-02    1.0229191406e+05
    3.3002786338e-02    1.0229165625e+05
    3.3017136157e-02    1.0229137500e+05
    3.3031478524e-02    1.0229108594e+05
    3.3045809716e-02    1.0229066406e+05
    3.3060129732e-02    1.0229022656e+05
    3.3074442297e-02    1.0228971875e+05
    3.3088747412e-02    1.0228907031e+05
    3.3103041351e-02    1.0228375781e+05
    3.3117324114e-02    1.0228222656e+05
    3.3131599426e-02    1.0227592969e+05
    3.3145863563e-02    1.0227541406e+05
    3.3160120249e-02    1.0227439844e+05
    3.3174365759e-02    1.0227864844e+05
    3.3188603818e-02    1.0228260156e+05
    3.3202830702e-02    1.0228192969e+05
    3.3217050135e-02    1.0227718750e+05
    3.3231258392e-02    1.0227458594e+05
    3.3245459199e-02    1.0227132031e+05
    3.3259648830e-02    1.0227047656e+05
    3.3273831010e-02    1.0227491406e+05
    3.3288005739e-02    1.0227933594e+05
    3.3302169293e-02    1.0227806250e+05
    3.3316325396e-02    1.0227222656e+05
    3.3330474049e-02    1.0226694531e+05
    3.3344611526e-02    1.0226687500e+05
    3.3358741552e-02    1.0226921094e+05
    3.3372864127e-02    1.0227110156e+05
    3.3386975527e-02    1.0227356250e+05
    3.3401079476e-02    1.0227162500e+05
    3.3415172249e-02    1.0227191406e+05
    3.3429257572e-02    1.0226928906e+05
    3.3443335444e-02    1.0226949219e+05
    3.3457405865e-02    1.0226728906e+05
    3.3471468836e-02    1.0226680469e+05
    3.3485524356e-02    1.0227041406e+05
    3.3499568701e-02    1.0226991406e+05
    3.3513605595e-02    1.0227115625e+05
    3.3527631313e-02    1.0227302344e+05
    3.3541653305e-02    1.0227197656e+05
    3.3555664122e-02    1.0226703906e+05
    3.3569667488e-02    1.0226427344e+05
    3.3583663404e-02    1.0226146094e+05
    3.3597648144e-02    1.0226039844e+05
    3.3611625433e-02    1.0225996094e+05
    3.3625595272e-02    1.0226128125e+05
    3.3639557660e-02    1.0226083594e+05
    3.3653512597e-02    1.0225919531e+05
    3.3667460084e-02    1.0225625000e+05
    3.3681396395e-02    1.0225562500e+05
    3.3695328981e-02    1.0225666406e+05
    3.3709254116e-02    1.0225362500e+05
    3.3723168075e-02    1.0225337500e+05
    3.3737078309e-02    1.0225306250e+05
    3.3750977367e-02    1.0225146094e+05
    3.3764872700e-02    1.0224521875e+05
    3.3778760582e-02    1.0224627344e+05
    3.3792637289e-02    1.0224664844e+05
    3.3806510270e-02    1.0224464844e+05
    3.3820372075e-02    1.0224253125e+05
    3.3834230155e-02    1.0223971094e+05
    3.3848077059e-02    1.0223337500e+05
    3.3861916512e-02    1.0223202344e+05
    3.3875752240e-02    1.0223010156e+05
    3.3889576793e-02    1.0222764844e+05
    3.3903393894e-02    1.0223028125e+05
    3.3917203546e-02    1.0222783594e+05
    3.3931009471e-02    1.0222593750e+05
    3.3944804221e-02    1.0221768750e+05
    3.3958595246e-02    1.0221275781e+05
    3.3972378820e-02    1.0221083594e+05
    3.3986151218e-02    1.0221419531e+05
    3.3999919891e-02    1.0221532031e+05
    3.4013681114e-02    1.0221658594e+05
    3.4027434886e-02    1.0221024219e+05
    3.4041177481e-02    1.0220685156e+05
    3.4054916352e-02    1.0220297656e+05
    3.4068647772e-02    1.0220896094e+05
    3.4082375467e-02    1.0220974219e+05
    3.4096091986e-02    1.0220832031e+05
    3.4109804779e-02    1.0220230469e+05
    3.4123510122e-02    1.0220531250e+05
    3.4137208015e-02    1.0220382031e+05
    3.4150898457e-02    1.0220286719e+05
    3.4164581448e-02    1.0219683594e+05
    3.4178260714e-02    1.0219638281e+05
    3.4191932529e-02    1.0219658594e+05
    3.4205596894e-02    1.0219802344e+05
    3.4219253808e-02    1.0219664844e+05
    3.4232903272e-02    1.0219596094e+05
    3.4246545285e-02    1.0219533594e+05
    3.4260183573e-02    1.0219482031e+05
    3.4273810685e-02    1.0219441406e+05
    3.4287434071e-02    1.0219356250e+05
    3.4301050007e-02    1.0219283594e+05
    3.4314658493e-02    1.0219288281e+05
    3.4328263253e-02    1.0219309375e+05
    3.4341860563e-02    1.0219231250e+05
    3.4355450422e-02    1.0219512500e+05
    3.4369036555e-02    1.0219446094e+05
    3.4382611513e-02    1.0219196875e+05
    3.4396182746e-02    1.0219183594e+05
    3.4409742802e-02    1.0219109375e+05
    3.4423299134e-02    1.0219092969e+05
    3.4436848015e-02    1.0219367969e+05
    3.4450393170e-02    1.0219110156e+05
    3.4463927150e-02    1.0219074219e+05
    3.4477461129e-02    1.0219021094e+05
    3.4490987659e-02    1.0218900000e+05
    3.4504506737e-02    1.0218766406e+05
    3.4518022090e-02    1.0218677344e+05
    3.4531529993e-02    1.0218285156e+05
    3.4545030445e-02    1.0217883594e+05
    3.4558523446e-02    1.0217455469e+05
    3.4572008997e-02    1.0217022656e+05
    3.4585487098e-02    1.0216884375e+05
    3.4598957747e-02    1.0216980469e+05
    3.4612424672e-02    1.0217196094e+05
    3.4625884145e-02    1.0216572656e+05
    3.4639336169e-02    1.0217028125e+05
    3.4652780741e-02    1.0217332031e+05
    3.4666225314e-02    1.0216778906e+05
    3.4679658711e-02    1.0216671094e+05
    3.4693088382e-02    1.0216500000e+05
    3.4706510603e-02    1.0215916406e+05
    3.4719929099e-02    1.0215797656e+05
    3.4733340144e-02    1.0216086719e+05
    3.4746743739e-02    1.0215960156e+05
    3.4760143608e-02    1.0215599219e+05
    3.4773536026e-02    1.0215235156e+05
    3.4786924720e-02    1.0215103906e+05
    3.4800305963e-02    1.0215206250e+05
    3.4813679755e-02    1.0215078906e+05
    3.4827046096e-02    1.0215236719e+05
    3.4840408713e-02    1.0215092969e+05
    3.4853763878e-02    1.0214480469e+05
    3.4867111593e-02    1.0214386719e+05
    3.4880455583e-02    1.0214228125e+05
    3.4893795848e-02    1.0214071875e+05
    3.4907124937e-02    1.0213967969e+05
    3.4920454025e-02    1.0213814844e+05
    3.4933775663e-02    1.0213658594e+05
    3.4947093576e-02    1.0213278125e+05
    3.4960404038e-02    1.0213397656e+05
    3.4973710775e-02    1.0213175000e+05
    3.4987010062e-02    1.0213014844e+05
endcurve
