Curveplot
LS-DYNA keyword deck by LS-PrePost                          
Time
Pressure
Defined Connection
Pressure @ 44 #pts=1745
* Minval=     9.9466960938e+04 at time=         0.0153897218
* Maxval=     1.7010026562e+05 at time=         0.0064986642
    0.0000000000e+00    9.9998710938e+04
    3.3812357287e-05    9.9998710938e+04
    6.1326652940e-05    9.9997695312e+04
    8.9102875791e-05    9.9998898438e+04
    1.1682785407e-04    9.9999085938e+04
    1.4461828687e-04    9.9999414062e+04
    1.7236733402e-04    9.9999976562e+04
    2.0016246708e-04    1.0000853906e+05
    2.2795486439e-04    9.9999914062e+04
    2.5574557367e-04    1.0000105469e+05
    2.8353667585e-04    9.9996257812e+04
    3.1133697485e-04    9.9995914062e+04
    3.3912662184e-04    1.0000047656e+05
    3.6691734567e-04    9.9999585938e+04
    3.9470891352e-04    1.0000108594e+05
    4.2249175021e-04    1.0000158594e+05
    4.5027161832e-04    1.0000100000e+05
    4.7804549104e-04    1.0000196094e+05
    5.0581363030e-04    1.0000278906e+05
    5.3357944125e-04    1.0000280469e+05
    5.6134146871e-04    1.0000250781e+05
    5.8909942163e-04    9.9992726562e+04
    6.1685312539e-04    9.9991062500e+04
    6.4460188150e-04    1.0000028125e+05
    6.7234638846e-04    1.0000843750e+05
    7.0008635521e-04    1.0000394531e+05
    7.2782178177e-04    1.0000408594e+05
    7.5555208605e-04    9.9998210938e+04
    7.8327720985e-04    1.0000260156e+05
    8.1099680392e-04    1.0000143750e+05
    8.3871174138e-04    9.9996562500e+04
    8.6642213864e-04    9.9992492188e+04
    8.9412782108e-04    1.0000006250e+05
    9.2182843946e-04    1.0000036719e+05
    9.4952445943e-04    1.0000116406e+05
    9.7721535712e-04    1.0000286719e+05
    1.0049008997e-03    1.0000160156e+05
    1.0325826006e-03    9.9994304688e+04
    1.0602590628e-03    1.0000185156e+05
    1.0879321489e-03    1.0000778906e+05
    1.1155996472e-03    1.0001078906e+05
    1.1432634201e-03    1.0000319531e+05
    1.1709230021e-03    9.9989726562e+04
    1.1985785095e-03    9.9981351562e+04
    1.2262313394e-03    9.9993054688e+04
    1.2538790470e-03    1.0000741406e+05
    1.2815232622e-03    1.0001127344e+05
    1.3091630535e-03    1.0000375000e+05
    1.3368004002e-03    9.9997132812e+04
    1.3644339051e-03    1.0000677344e+05
    1.3920635683e-03    1.0002367969e+05
    1.4196902048e-03    1.0006332031e+05
    1.4473132323e-03    1.0010835156e+05
    1.4749332331e-03    1.0018890625e+05
    1.5025498578e-03    1.0032071094e+05
    1.5301633393e-03    1.0051235156e+05
    1.5577742597e-03    1.0077646875e+05
    1.5853822697e-03    1.0109783594e+05
    1.6129877185e-03    1.0147250000e+05
    1.6405890929e-03    1.0186749219e+05
    1.6681876732e-03    1.0225172656e+05
    1.6957829939e-03    1.0259284375e+05
    1.7233766848e-03    1.0286941406e+05
    1.7509678146e-03    1.0305028906e+05
    1.7785291420e-03    1.0313778906e+05
    1.8060547300e-03    1.0313616406e+05
    1.8335470231e-03    1.0305394531e+05
    1.8610082334e-03    1.0292346094e+05
    1.8884401070e-03    1.0274962500e+05
    1.9158447394e-03    1.0257335156e+05
    1.9432241097e-03    1.0241675781e+05
    1.9705800805e-03    1.0230083594e+05
    1.9979148638e-03    1.0222250781e+05
    2.0252298564e-03    1.0219488281e+05
    2.0525271539e-03    1.0221478906e+05
    2.0798076876e-03    1.0227093750e+05
    2.1070730872e-03    1.0234078125e+05
    2.1343247499e-03    1.0241696875e+05
    2.1615643054e-03    1.0247783594e+05
    2.1887931507e-03    1.0252510156e+05
    2.2160108201e-03    1.0254702344e+05
    2.2432196420e-03    1.0254396094e+05
    2.2704207804e-03    1.0251833594e+05
    2.2976147011e-03    1.0248441406e+05
    2.3248014040e-03    1.0243952344e+05
    2.3519827519e-03    1.0240988281e+05
    2.3791582789e-03    1.0238958594e+05
    2.4063293822e-03    1.0238425000e+05
    2.4334960617e-03    1.0238807031e+05
    2.4606597144e-03    1.0239989844e+05
    2.4878205732e-03    1.0241185156e+05
    2.5149781723e-03    1.0242910156e+05
    2.5421329774e-03    1.0244019531e+05
    2.5692859199e-03    1.0244371094e+05
    2.5964374654e-03    1.0244183594e+05
    2.6235871483e-03    1.0244405469e+05
    2.6507352013e-03    1.0243793750e+05
    2.6778825559e-03    1.0243562500e+05
    2.7050296776e-03    1.0242302344e+05
    2.7321761008e-03    1.0241910156e+05
    2.7593218256e-03    1.0241335156e+05
    2.7864677832e-03    1.0242049219e+05
    2.8136142064e-03    1.0242335156e+05
    2.8407603968e-03    1.0243016406e+05
    2.8679079842e-03    1.0244165625e+05
    2.8950548731e-03    1.0246271094e+05
    2.9222022276e-03    1.0248852344e+05
    2.9493502807e-03    1.0252392969e+05
    2.9764990322e-03    1.0257278906e+05
    3.0036487151e-03    1.0263625000e+05
    3.0307997949e-03    1.0271983594e+05
    3.0579508748e-03    1.0281634375e+05
    3.0851035845e-03    1.0291411719e+05
    3.1122572254e-03    1.0302553906e+05
    3.1394117977e-03    1.0312256250e+05
    3.1665677670e-03    1.0320458594e+05
    3.1937246677e-03    1.0326722656e+05
    3.2208829653e-03    1.0330110156e+05
    3.2480424270e-03    1.0330178906e+05
    3.2752046827e-03    1.0328690625e+05
    3.2952371985e-03    1.0325496875e+05
    3.3145032357e-03    1.0322564844e+05
    3.3336398192e-03    1.0318522656e+05
    3.3528339118e-03    1.0314789844e+05
    3.3720366191e-03    1.0310925781e+05
    3.3912549261e-03    1.0306369531e+05
    3.4104890656e-03    1.0301463281e+05
    3.4297339153e-03    1.0296952344e+05
    3.4486323129e-03    1.0293014844e+05
    3.4671388566e-03    1.0287962500e+05
    3.4854323603e-03    1.0283086719e+05
    3.5036695190e-03    1.0277034375e+05
    3.5219141282e-03    1.0270880469e+05
    3.5401545465e-03    1.0263857031e+05
    3.5583588760e-03    1.0256888281e+05
    3.5765271168e-03    1.0249791406e+05
    3.5946895368e-03    1.0243114844e+05
    3.6139658187e-03    1.0236953906e+05
    3.6330535077e-03    1.0231386719e+05
    3.6521453876e-03    1.0227518750e+05
    3.6699753255e-03    1.0224533594e+05
    3.6875614896e-03    1.0222552344e+05
    3.7050142419e-03    1.0221210156e+05
    3.7224807311e-03    1.0219803906e+05
    3.7400643341e-03    1.0218635156e+05
    3.7577797193e-03    1.0217337500e+05
    3.7755726371e-03    1.0216083594e+05
    3.7933769636e-03    1.0214513281e+05
    3.8111612666e-03    1.0213539844e+05
    3.8289318327e-03    1.0212716406e+05
    3.8467168342e-03    1.0212162500e+05
    3.8645383902e-03    1.0211406250e+05
    3.8824023213e-03    1.0210907031e+05
    3.9002960548e-03    1.0210387500e+05
    3.9182156324e-03    1.0209333594e+05
    3.9361710660e-03    1.0207712500e+05
    3.9541716687e-03    1.0206064844e+05
    3.9733103476e-03    1.0204139844e+05
    3.9924201556e-03    1.0201935156e+05
    4.0104058571e-03    1.0199837500e+05
    4.0284004062e-03    1.0198893750e+05
    4.0464363992e-03    1.0197464844e+05
    4.0656095371e-03    1.0196885156e+05
    4.0847789496e-03    1.0196316406e+05
    4.1039343923e-03    1.0195991406e+05
    4.1219722480e-03    1.0195811719e+05
    4.1400394402e-03    1.0195802344e+05
    4.1591953486e-03    1.0194646094e+05
    4.1784178466e-03    1.0192534375e+05
    4.1976389475e-03    1.0191477344e+05
    4.2168586515e-03    1.0190653906e+05
    4.2360713705e-03    1.0189893750e+05
    4.2552771047e-03    1.0189782031e+05
    4.2744791135e-03    1.0189725781e+05
    4.2936825193e-03    1.0189191406e+05
    4.3128933758e-03    1.0187885156e+05
    4.3321144767e-03    1.0186140625e+05
    4.3513495475e-03    1.0183780469e+05
    4.3705995195e-03    1.0181589844e+05
    4.3898657896e-03    1.0179464844e+05
    4.4091497548e-03    1.0177346094e+05
    4.4284537435e-03    1.0175071094e+05
    4.4477786869e-03    1.0171863281e+05
    4.4671236537e-03    1.0167710156e+05
    4.4864914380e-03    1.0162602344e+05
    4.5058806427e-03    1.0155765625e+05
    4.5252908021e-03    1.0148613281e+05
    4.5447219163e-03    1.0139790625e+05
    4.5641721226e-03    1.0131138281e+05
    4.5836409554e-03    1.0121678125e+05
    4.6031279489e-03    1.0111222656e+05
    4.6226321720e-03    1.0099703906e+05
    4.6421540901e-03    1.0086775000e+05
    4.6616927721e-03    1.0074066406e+05
    4.6812482178e-03    1.0061349219e+05
    4.7008208930e-03    1.0049702344e+05
    4.7204112634e-03    1.0038728906e+05
    4.7400193289e-03    1.0029860156e+05
    4.7596455552e-03    1.0023338281e+05
    4.7792894766e-03    1.0018596094e+05
    4.7989510931e-03    1.0015588281e+05
    4.8186304048e-03    1.0014665625e+05
    4.8383255489e-03    1.0015499219e+05
    4.8580355942e-03    1.0018405469e+05
    4.8777610064e-03    1.0023321094e+05
    4.8975008540e-03    1.0028511719e+05
    4.9172551371e-03    1.0034449219e+05
    4.9370229244e-03    1.0040928125e+05
    4.9568060786e-03    1.0047733594e+05
    4.9766036682e-03    1.0052935156e+05
    4.9964170903e-03    1.0058150000e+05
    5.0162458792e-03    1.0061300000e+05
    5.0360900350e-03    1.0064627344e+05
    5.0559476949e-03    1.0066484375e+05
    5.0758207217e-03    1.0067402344e+05
    5.0957072526e-03    1.0067421094e+05
    5.1156077534e-03    1.0067503906e+05
    5.1355226897e-03    1.0066566406e+05
    5.1554525271e-03    1.0065372656e+05
    5.1753963344e-03    1.0063549219e+05
    5.1953555085e-03    1.0061616406e+05
    5.2153295837e-03    1.0059906250e+05
    5.2353194915e-03    1.0058283594e+05
    5.2553247660e-03    1.0057739844e+05
    5.2753463387e-03    1.0057403906e+05
    5.2953832783e-03    1.0057753125e+05
    5.3154369816e-03    1.0058285156e+05
    5.3355065174e-03    1.0058339844e+05
    5.3555918857e-03    1.0059166406e+05
    5.3756926209e-03    1.0059833594e+05
    5.3958082572e-03    1.0060425781e+05
    5.4159392603e-03    1.0062010156e+05
    5.4360851645e-03    1.0063635156e+05
    5.4562464356e-03    1.0065253125e+05
    5.4764230736e-03    1.0065786719e+05
    5.4966160096e-03    1.0066452344e+05
    5.5168238468e-03    1.0066782031e+05
    5.5370470509e-03    1.0067241406e+05
    5.5572865531e-03    1.0067285156e+05
    5.5775423534e-03    1.0067267969e+05
    5.5978130549e-03    1.0066883594e+05
    5.6181000546e-03    1.0067160156e+05
    5.6384028867e-03    1.0067321094e+05
    5.6587206200e-03    1.0067485156e+05
    5.6790532544e-03    1.0068053906e+05
    5.6994007900e-03    1.0068346094e+05
    5.7197632268e-03    1.0068277344e+05
    5.7401410304e-03    1.0068613281e+05
    5.7605337352e-03    1.0068980469e+05
    5.7809422724e-03    1.0068800781e+05
    5.8013652451e-03    1.0069250000e+05
    5.8218040504e-03    1.0069763281e+05
    5.8422577567e-03    1.0070102344e+05
    5.8627268299e-03    1.0070425781e+05
    5.8832112700e-03    1.0071861719e+05
    5.9037101455e-03    1.0072278906e+05
    5.9242248535e-03    1.0072716406e+05
    5.9447535314e-03    1.0073166406e+05
    5.9641525149e-03    1.0073642969e+05
    5.9830932878e-03    1.0074108594e+05
    6.0020405799e-03    1.0074578125e+05
    6.0210367665e-03    1.0075058594e+05
    6.0400799848e-03    1.0076458594e+05
    6.0591096990e-03    1.0076847656e+05
    6.0781282373e-03    1.0077414844e+05
    6.0972142965e-03    1.0077992969e+05
    6.1162756756e-03    1.0079203125e+05
    6.1353649944e-03    1.0079983594e+05
    6.1544459313e-03    1.0080440625e+05
    6.1734300107e-03    1.0082090625e+05
    6.1924448237e-03    1.0084199219e+05
    6.2115197070e-03    1.0089600000e+05
    6.2306127511e-03    1.0099575781e+05
    6.2497169711e-03    1.0120730469e+05
    6.2688281760e-03    1.0165647656e+05
    6.2879407778e-03    1.0257675000e+05
    6.3070552424e-03    1.0437725781e+05
    6.3261794858e-03    1.0768081250e+05
    6.3453060575e-03    1.1316240625e+05
    6.3644465990e-03    1.2121902344e+05
    6.3835908659e-03    1.3159700000e+05
    6.4027444459e-03    1.4307829688e+05
    6.4219115302e-03    1.5388360938e+05
    6.4410855994e-03    1.6236165625e+05
    6.4602680504e-03    1.6768706250e+05
    6.4794607460e-03    1.7000114062e+05
    6.4986641519e-03    1.7010026562e+05
    6.5178787336e-03    1.6893298438e+05
    6.5371058881e-03    1.6731339062e+05
    6.5563363023e-03    1.6577132812e+05
    6.5755699761e-03    1.6444982812e+05
    6.5948092379e-03    1.6326750000e+05
    6.6140629351e-03    1.6204106250e+05
    6.6333152354e-03    1.6066081250e+05
    6.6525745206e-03    1.5909223438e+05
    6.6718445159e-03    1.5735014062e+05
    6.6911154427e-03    1.5550809375e+05
    6.7104012705e-03    1.5364068750e+05
    6.7296870984e-03    1.5182479688e+05
    6.7489854991e-03    1.5009725000e+05
    6.7682852969e-03    1.4846406250e+05
    6.7875892855e-03    1.4691365625e+05
    6.8069072440e-03    1.4541681250e+05
    6.8262196146e-03    1.4396170312e+05
    6.8455408327e-03    1.4252731250e+05
    6.8648783490e-03    1.4112214062e+05
    6.8842126057e-03    1.3976740625e+05
    6.9035501219e-03    1.3846953125e+05
    6.9228983484e-03    1.3724957812e+05
    6.9422605447e-03    1.3611587500e+05
    6.9616222754e-03    1.3505034375e+05
    6.9809844717e-03    1.3405843750e+05
    7.0003494620e-03    1.3312979688e+05
    7.0197195746e-03    1.3225009375e+05
    7.0390999317e-03    1.3142037500e+05
    7.0584909990e-03    1.3064289844e+05
    7.0778946392e-03    1.2989985156e+05
    7.0973108523e-03    1.2919963281e+05
    7.1167377755e-03    1.2854046094e+05
    7.1361698210e-03    1.2790911719e+05
    7.1556069888e-03    1.2730732031e+05
    7.1750483476e-03    1.2673847656e+05
    7.1944966912e-03    1.2618559375e+05
    7.2139529511e-03    1.2564008594e+05
    7.2334166616e-03    1.2510652344e+05
    7.2528840974e-03    1.2458149219e+05
    7.2723543271e-03    1.2407278125e+05
    7.2918278165e-03    1.2357491406e+05
    7.3113050312e-03    1.2310121094e+05
    7.3307845742e-03    1.2265041406e+05
    7.3502692394e-03    1.2222027344e+05
    7.3697618209e-03    1.2181993750e+05
    7.3892641813e-03    1.2144082031e+05
    7.4087800458e-03    1.2108150000e+05
    7.4282912537e-03    1.2073903125e+05
    7.4477996677e-03    1.2042115625e+05
    7.4673094787e-03    1.2012207031e+05
    7.4868267402e-03    1.1984856250e+05
    7.5063589029e-03    1.1958765625e+05
    7.5258887373e-03    1.1934102344e+05
    7.5454111211e-03    1.1911183594e+05
    7.5649353676e-03    1.1889775781e+05
    7.5844703242e-03    1.1870003906e+05
    7.6040057465e-03    1.1851184375e+05
    7.6235276647e-03    1.1833837500e+05
    7.6430505142e-03    1.1817708594e+05
    7.6625877991e-03    1.1802591406e+05
    7.6821087860e-03    1.1787703906e+05
    7.7016241848e-03    1.1773333594e+05
    7.7211544849e-03    1.1759612500e+05
    7.7406810597e-03    1.1745999219e+05
    7.7602043748e-03    1.1732878906e+05
    7.7797495760e-03    1.1719781250e+05
    7.7992938459e-03    1.1707022656e+05
    7.8188432381e-03    1.1694650781e+05
    7.8384252265e-03    1.1681722656e+05
    7.8580006957e-03    1.1668549219e+05
    7.8775910661e-03    1.1654916406e+05
    7.8972103074e-03    1.1641196094e+05
    7.9168286175e-03    1.1627909375e+05
    7.9364804551e-03    1.1614222656e+05
    7.9561360180e-03    1.1601559375e+05
    7.9758102074e-03    1.1589288281e+05
    7.9955114052e-03    1.1577978906e+05
    8.0152126029e-03    1.1566783594e+05
    8.0349491909e-03    1.1556796875e+05
    8.0546662211e-03    1.1547609375e+05
    8.0743944272e-03    1.1538921875e+05
    8.0941170454e-03    1.1530919531e+05
    8.1138620153e-03    1.1523235156e+05
    8.1336386502e-03    1.1516112500e+05
    8.1534720957e-03    1.1508883594e+05
    8.1733558327e-03    1.1501728906e+05
    8.1932730973e-03    1.1493771094e+05
    8.2132071257e-03    1.1486125000e+05
    8.2330890000e-03    1.1477363281e+05
    8.2529615611e-03    1.1467721094e+05
    8.2727763802e-03    1.1456522656e+05
    8.2926023751e-03    1.1444439844e+05
    8.3124246448e-03    1.1430921094e+05
    8.3322748542e-03    1.1416166406e+05
    8.3521194756e-03    1.1400224219e+05
    8.3719678223e-03    1.1383386719e+05
    8.3917891607e-03    1.1365946094e+05
    8.4116021171e-03    1.1348396875e+05
    8.4314141423e-03    1.1330568750e+05
    8.4512168542e-03    1.1312533594e+05
    8.4710381925e-03    1.1294353125e+05
    8.4908353165e-03    1.1275722656e+05
    8.5106678307e-03    1.1257346094e+05
    8.5304882377e-03    1.1239185156e+05
    8.5503393784e-03    1.1221334375e+05
    8.5699046031e-03    1.1203587500e+05
    8.5892248899e-03    1.1186827344e+05
    8.6083402857e-03    1.1170588281e+05
    8.6272666231e-03    1.1154783594e+05
    8.6460309103e-03    1.1140091406e+05
    8.6646731943e-03    1.1125189844e+05
    8.6832325906e-03    1.1112071094e+05
    8.7017398328e-03    1.1099560156e+05
    8.7202098221e-03    1.1087878125e+05
    8.7386453524e-03    1.1077196094e+05
    8.7570473552e-03    1.1068403906e+05
    8.7753897533e-03    1.1060367969e+05
    8.7936492637e-03    1.1054578906e+05
    8.8118780404e-03    1.1049802344e+05
    8.8300397620e-03    1.1046743750e+05
    8.8481390849e-03    1.1044524219e+05
    8.8662039489e-03    1.1042478906e+05
    8.8842641562e-03    1.1041389844e+05
    8.9023411274e-03    1.1040942969e+05
    8.9204348624e-03    1.1040691406e+05
    8.9385388419e-03    1.1041375781e+05
    8.9566456154e-03    1.1041956250e+05
    8.9747514576e-03    1.1043035156e+05
    8.9928600937e-03    1.1043477344e+05
    9.0109808370e-03    1.1043503906e+05
    9.0291155502e-03    1.1043458594e+05
    9.0472688898e-03    1.1042789844e+05
    9.0654399246e-03    1.1041410156e+05
    9.0836230665e-03    1.1039852344e+05
    9.1018192470e-03    1.1037428906e+05
    9.1200266033e-03    1.1034505469e+05
    9.1382460669e-03    1.1031018750e+05
    9.1564757749e-03    1.1026505469e+05
    9.1747231781e-03    1.1020691406e+05
    9.1929892078e-03    1.1014796875e+05
    9.2112747952e-03    1.1007799219e+05
    9.2295790091e-03    1.1000935156e+05
    9.2479009181e-03    1.0993405469e+05
    9.2662386596e-03    1.0985678906e+05
    9.2845931649e-03    1.0978050000e+05
    9.3029672280e-03    1.0970461719e+05
    9.3213599175e-03    1.0962910156e+05
    9.3397712335e-03    1.0955287500e+05
    9.3582011759e-03    1.0948366406e+05
    9.3766497448e-03    1.0941786719e+05
    9.3951150775e-03    1.0935452344e+05
    9.4135999680e-03    1.0929906250e+05
    9.4321016222e-03    1.0925052344e+05
    9.4506228343e-03    1.0920575000e+05
    9.4691645354e-03    1.0916885156e+05
    9.4877239317e-03    1.0913264844e+05
    9.5063010231e-03    1.0910166406e+05
    9.5248948783e-03    1.0907527344e+05
    9.5435054973e-03    1.0904841406e+05
    9.5621328801e-03    1.0901678906e+05
    9.5807760954e-03    1.0899172656e+05
    9.5994332805e-03    1.0896739844e+05
    9.6181081608e-03    1.0893337500e+05
    9.6367979422e-03    1.0890858594e+05
    9.6555035561e-03    1.0887872656e+05
    9.6742231399e-03    1.0884678906e+05
    9.6929576248e-03    1.0880825781e+05
    9.7117051482e-03    1.0877268750e+05
    9.7304685041e-03    1.0872490625e+05
    9.7492448986e-03    1.0866934375e+05
    9.7680361941e-03    1.0860450000e+05
    9.7868405282e-03    1.0853021875e+05
    9.8056588322e-03    1.0845364844e+05
    9.8244920373e-03    1.0836303125e+05
    9.8433364183e-03    1.0827633594e+05
    9.8621929064e-03    1.0818775000e+05
    9.8810633644e-03    1.0809703125e+05
    9.8999459296e-03    1.0801153906e+05
    9.9188406020e-03    1.0792931250e+05
    9.9377483130e-03    1.0784321875e+05
    9.9566690624e-03    1.0776178906e+05
    9.9756028503e-03    1.0768850000e+05
    9.9945487455e-03    1.0762028906e+05
    1.0013507679e-02    1.0755686719e+05
    1.0032479651e-02    1.0750134375e+05
    1.0051463731e-02    1.0743821094e+05
    1.0070459917e-02    1.0737564844e+05
    1.0089469142e-02    1.0731806250e+05
    1.0108492337e-02    1.0725478906e+05
    1.0127528571e-02    1.0719730469e+05
    1.0146577843e-02    1.0713459375e+05
    1.0165639222e-02    1.0708200000e+05
    1.0184712708e-02    1.0701322656e+05
    1.0203798302e-02    1.0694568750e+05
    1.0222896002e-02    1.0687274219e+05
    1.0242006741e-02    1.0680111719e+05
    1.0261129588e-02    1.0672296094e+05
    1.0280264542e-02    1.0664508594e+05
    1.0299413465e-02    1.0656635156e+05
    1.0318575427e-02    1.0648836719e+05
    1.0337748565e-02    1.0642050000e+05
    1.0356934741e-02    1.0635857031e+05
    1.0376133956e-02    1.0629296094e+05
    1.0395346209e-02    1.0622686719e+05
    1.0414571501e-02    1.0616249219e+05
    1.0433809832e-02    1.0610671094e+05
    1.0453061201e-02    1.0604208594e+05
    1.0472324677e-02    1.0597738281e+05
    1.0491601191e-02    1.0591532031e+05
    1.0510892607e-02    1.0584702344e+05
    1.0530196130e-02    1.0577459375e+05
    1.0549513623e-02    1.0568789844e+05
    1.0568842292e-02    1.0560000781e+05
    1.0588183999e-02    1.0549853125e+05
    1.0607538745e-02    1.0539864844e+05
    1.0626907460e-02    1.0529853125e+05
    1.0646289214e-02    1.0519708594e+05
    1.0665684007e-02    1.0509602344e+05
    1.0685092770e-02    1.0499483594e+05
    1.0704516433e-02    1.0489860156e+05
    1.0723951273e-02    1.0480584375e+05
    1.0743400082e-02    1.0472046094e+05
    1.0762862861e-02    1.0464296094e+05
    1.0782338679e-02    1.0457524219e+05
    1.0801829398e-02    1.0451781250e+05
    1.0821334086e-02    1.0446758594e+05
    1.0840852745e-02    1.0442097656e+05
    1.0860386305e-02    1.0438575781e+05
    1.0879932903e-02    1.0435106250e+05
    1.0899493471e-02    1.0431941406e+05
    1.0919069871e-02    1.0428990625e+05
    1.0938662104e-02    1.0425791406e+05
    1.0958270170e-02    1.0422444531e+05
    1.0977892205e-02    1.0419056250e+05
    1.0997531936e-02    1.0415153125e+05
    1.1017187499e-02    1.0410994531e+05
    1.1036860757e-02    1.0407046094e+05
    1.1056551710e-02    1.0403010156e+05
    1.1076259427e-02    1.0399075781e+05
    1.1095987633e-02    1.0395569531e+05
    1.1115733534e-02    1.0392535156e+05
    1.1135498993e-02    1.0390136719e+05
    1.1155283079e-02    1.0386961719e+05
    1.1175086722e-02    1.0384546875e+05
    1.1194912717e-02    1.0382271094e+05
    1.1214758269e-02    1.0379387500e+05
    1.1234625243e-02    1.0375972656e+05
    1.1254511774e-02    1.0371572656e+05
    1.1274418794e-02    1.0366412500e+05
    1.1294347234e-02    1.0361659375e+05
    1.1314296164e-02    1.0356797656e+05
    1.1334266514e-02    1.0352108594e+05
    1.1354257353e-02    1.0346960156e+05
    1.1374268681e-02    1.0342228906e+05
    1.1394302361e-02    1.0337412500e+05
    1.1414355598e-02    1.0331971094e+05
    1.1434430256e-02    1.0327086719e+05
    1.1454525404e-02    1.0321547656e+05
    1.1474640109e-02    1.0315422656e+05
    1.1494777165e-02    1.0309571094e+05
    1.1514934711e-02    1.0303056250e+05
    1.1535113677e-02    1.0295703906e+05
    1.1555313133e-02    1.0288211719e+05
    1.1575534008e-02    1.0279352344e+05
    1.1595774442e-02    1.0271266406e+05
    1.1616035365e-02    1.0263052344e+05
    1.1636316776e-02    1.0254521094e+05
    1.1656619608e-02    1.0245662500e+05
    1.1676942930e-02    1.0237849219e+05
    1.1697287671e-02    1.0229327344e+05
    1.1717652902e-02    1.0220103906e+05
    1.1738038622e-02    1.0210538281e+05
    1.1758443899e-02    1.0200242969e+05
    1.1778870597e-02    1.0190150781e+05
    1.1799318716e-02    1.0179321875e+05
    1.1819788255e-02    1.0168302344e+05
    1.1840280145e-02    1.0156939844e+05
    1.1860790662e-02    1.0146802344e+05
    1.1881321669e-02    1.0137116406e+05
    1.1901874095e-02    1.0129016406e+05
    1.1922447011e-02    1.0122603125e+05
    1.1943042278e-02    1.0118722656e+05
    1.1963658035e-02    1.0118466406e+05
    1.1984295212e-02    1.0123114844e+05
    1.2004952878e-02    1.0135189844e+05
    1.2025631964e-02    1.0156514844e+05
    1.2046331540e-02    1.0189357031e+05
    1.2067052536e-02    1.0235341406e+05
    1.2087795883e-02    1.0296825781e+05
    1.2108558789e-02    1.0374055469e+05
    1.2129344046e-02    1.0467752344e+05
    1.2150149792e-02    1.0575950000e+05
    1.2170976959e-02    1.0694358594e+05
    1.2191825546e-02    1.0815644531e+05
    1.2212695554e-02    1.0931778125e+05
    1.2233586982e-02    1.1034303125e+05
    1.2254500762e-02    1.1114661719e+05
    1.2275436893e-02    1.1168946094e+05
    1.2296394445e-02    1.1194491406e+05
    1.2317374349e-02    1.1192603906e+05
    1.2338375673e-02    1.1166712500e+05
    1.2359398417e-02    1.1120782031e+05
    1.2380442582e-02    1.1061343750e+05
    1.2401508167e-02    1.0994410156e+05
    1.2422595173e-02    1.0924547656e+05
    1.2443703599e-02    1.0858140625e+05
    1.2464834377e-02    1.0799464844e+05
    1.2485986575e-02    1.0749552344e+05
    1.2507158332e-02    1.0710438281e+05
    1.2528351508e-02    1.0678830469e+05
    1.2549565174e-02    1.0651114844e+05
    1.2570801191e-02    1.0623843750e+05
    1.2592058629e-02    1.0593871094e+05
    1.2613337487e-02    1.0558021094e+05
    1.2634636834e-02    1.0516811719e+05
    1.2655957602e-02    1.0469743750e+05
    1.2677297927e-02    1.0419710156e+05
    1.2698660605e-02    1.0367216406e+05
    1.2720043771e-02    1.0315575000e+05
    1.2741449289e-02    1.0265925000e+05
    1.2762876227e-02    1.0221153906e+05
    1.2784325518e-02    1.0182153906e+05
    1.2805794366e-02    1.0149653906e+05
    1.2827285565e-02    1.0123603125e+05
    1.2848797254e-02    1.0103028906e+05
    1.2870330364e-02    1.0086228906e+05
    1.2891885825e-02    1.0072091406e+05
    1.2913462706e-02    1.0059647656e+05
    1.2935061008e-02    1.0048481250e+05
    1.2956679799e-02    1.0038455469e+05
    1.2978320010e-02    1.0029519531e+05
    1.2999981642e-02    1.0022313281e+05
    1.3021663763e-02    1.0016814844e+05
    1.3043368235e-02    1.0012719531e+05
    1.3065092266e-02    1.0009797656e+05
    1.3086837716e-02    1.0009097656e+05
    1.3108605519e-02    1.0010096094e+05
    1.3130392879e-02    1.0011821094e+05
    1.3152201660e-02    1.0014217969e+05
    1.3174032792e-02    1.0016700000e+05
    1.3195885345e-02    1.0017396094e+05
    1.3217759319e-02    1.0016842969e+05
    1.3239653781e-02    1.0015075781e+05
    1.3261569664e-02    1.0011505469e+05
    1.3283506967e-02    1.0007006250e+05
    1.3305463828e-02    1.0002013281e+05
    1.3327440247e-02    9.9975156250e+04
    1.3349435292e-02    9.9941539062e+04
    1.3371448033e-02    9.9935148438e+04
    1.3393475674e-02    9.9958023438e+04
    1.3415516354e-02    1.0001128125e+05
    1.3437564485e-02    1.0009347656e+05
    1.3459613547e-02    1.0018928906e+05
    1.3481658883e-02    1.0028788281e+05
    1.3503690250e-02    1.0037322656e+05
    1.3525702059e-02    1.0043966406e+05
    1.3547683135e-02    1.0048689844e+05
    1.3569628820e-02    1.0051285156e+05
    1.3591531664e-02    1.0052643750e+05
    1.3613392599e-02    1.0052594531e+05
    1.3635210693e-02    1.0052227344e+05
    1.3656994328e-02    1.0051922656e+05
    1.3678749092e-02    1.0052388281e+05
    1.3700488023e-02    1.0053846094e+05
    1.3722228818e-02    1.0056197656e+05
    1.3743981719e-02    1.0059634375e+05
    1.3765762560e-02    1.0062996875e+05
    1.3787578791e-02    1.0066989844e+05
    1.3809437864e-02    1.0070424219e+05
    1.3831341639e-02    1.0073214844e+05
    1.3853288256e-02    1.0075242969e+05
    1.3875273056e-02    1.0076571875e+05
    1.3897285797e-02    1.0077630469e+05
    1.3919321820e-02    1.0078122656e+05
    1.3941374607e-02    1.0077990625e+05
    1.3963440433e-02    1.0078099219e+05
    1.3985517435e-02    1.0078115625e+05
    1.4007603750e-02    1.0078014844e+05
    1.4029704034e-02    1.0077994531e+05
    1.4051820152e-02    1.0078835156e+05
    1.4073957689e-02    1.0079103125e+05
    1.4096121304e-02    1.0080283594e+05
    1.4118315652e-02    1.0080441406e+05
    1.4140545391e-02    1.0081196094e+05
    1.4162814245e-02    1.0081378906e+05
    1.4185124077e-02    1.0080967969e+05
    1.4207473956e-02    1.0080972656e+05
    1.4229862019e-02    1.0080800781e+05
    1.4252286404e-02    1.0079639844e+05
    1.4274741523e-02    1.0078578906e+05
    1.4297228307e-02    1.0076761719e+05
    1.4319745824e-02    1.0075437500e+05
    1.4342290349e-02    1.0073586719e+05
    1.4364863746e-02    1.0071972656e+05
    1.4387467876e-02    1.0070671094e+05
    1.4410103671e-02    1.0069153125e+05
    1.4432771131e-02    1.0066632031e+05
    1.4455472119e-02    1.0064296094e+05
    1.4478209428e-02    1.0061802344e+05
    1.4500979334e-02    1.0059643750e+05
    1.4523783699e-02    1.0057442969e+05
    1.4546621591e-02    1.0054675781e+05
    1.4569494873e-02    1.0052206250e+05
    1.4592399821e-02    1.0049464844e+05
    1.4615339227e-02    1.0046453906e+05
    1.4638305642e-02    1.0043691406e+05
    1.4661304653e-02    1.0040707031e+05
    1.4684336260e-02    1.0038133594e+05
    1.4707398601e-02    1.0035050000e+05
    1.4730494469e-02    1.0031960156e+05
    1.4753622934e-02    1.0028796875e+05
    1.4776783995e-02    1.0025277344e+05
    1.4799979515e-02    1.0021272656e+05
    1.4823205769e-02    1.0017118750e+05
    1.4846466482e-02    1.0013013281e+05
    1.4869757928e-02    1.0009212500e+05
    1.4893081971e-02    1.0005703125e+05
    1.4916437678e-02    1.0002071094e+05
    1.4939822257e-02    9.9984898438e+04
    1.4963239431e-02    9.9954570312e+04
    1.4986685477e-02    9.9925625000e+04
    1.5010161325e-02    9.9890757812e+04
    1.5033668838e-02    9.9857835938e+04
    1.5057205223e-02    9.9829820312e+04
    1.5080772340e-02    9.9792500000e+04
    1.5104367398e-02    9.9756601562e+04
    1.5127992257e-02    9.9725226562e+04
    1.5151646920e-02    9.9699093750e+04
    1.5175330453e-02    9.9661789062e+04
    1.5199041925e-02    9.9633914062e+04
    1.5222782269e-02    9.9600914062e+04
    1.5246548690e-02    9.9567851562e+04
    1.5270343982e-02    9.9539367188e+04
    1.5294168144e-02    9.9514132812e+04
    1.5318016522e-02    9.9495226562e+04
    1.5341891907e-02    9.9477000000e+04
    1.5365792438e-02    9.9469585938e+04
    1.5389721841e-02    9.9466960938e+04
    1.5413676389e-02    9.9474273438e+04
    1.5437657945e-02    9.9491773438e+04
    1.5461664647e-02    9.9510914062e+04
    1.5485695563e-02    9.9544726562e+04
    1.5509752557e-02    9.9588093750e+04
    1.5533835627e-02    9.9629054688e+04
    1.5557944775e-02    9.9673804688e+04
    1.5582079068e-02    9.9721023438e+04
    1.5606240369e-02    9.9769148438e+04
    1.5630424023e-02    9.9819632812e+04
    1.5654634684e-02    9.9874468750e+04
    1.5678871423e-02    9.9927257812e+04
    1.5703132376e-02    9.9981976562e+04
    1.5727419406e-02    1.0004096875e+05
    1.5751728788e-02    1.0010611719e+05
    1.5776060522e-02    1.0017067969e+05
    1.5800418332e-02    1.0024658594e+05
    1.5824800357e-02    1.0032746094e+05
    1.5849204734e-02    1.0040983594e+05
    1.5873633325e-02    1.0049974219e+05
    1.5898084268e-02    1.0059378906e+05
    1.5922557563e-02    1.0068514844e+05
    1.5947058797e-02    1.0077611719e+05
    1.5971582383e-02    1.0086253125e+05
    1.5996130183e-02    1.0094603906e+05
    1.6020702198e-02    1.0102312500e+05
    1.6045298427e-02    1.0109564844e+05
    1.6069920734e-02    1.0116371094e+05
    1.6094569117e-02    1.0122653906e+05
    1.6119243577e-02    1.0127871094e+05
    1.6143942252e-02    1.0133377344e+05
    1.6168667004e-02    1.0138591406e+05
    1.6193419695e-02    1.0143197656e+05
    1.6218200326e-02    1.0147352344e+05
    1.6243007034e-02    1.0151621094e+05
    1.6267839819e-02    1.0155718750e+05
    1.6292702407e-02    1.0159408594e+05
    1.6317596659e-02    1.0162257031e+05
    1.6342513263e-02    1.0165222656e+05
    1.6367461532e-02    1.0166540625e+05
    1.6392435879e-02    1.0167878906e+05
    1.6417443752e-02    1.0168650781e+05
    1.6442479566e-02    1.0167977344e+05
    1.6467543319e-02    1.0166640625e+05
    1.6492636874e-02    1.0163514844e+05
    1.6517756507e-02    1.0160244531e+05
    1.6542907804e-02    1.0156413281e+05
    1.6568088904e-02    1.0152403125e+05
    1.6593271866e-02    1.0148474219e+05
    1.6618426889e-02    1.0143853906e+05
    1.6643559560e-02    1.0139468750e+05
    1.6668669879e-02    1.0135150000e+05
    1.6693757847e-02    1.0132115625e+05
    1.6718825325e-02    1.0130424219e+05
    1.6743874177e-02    1.0130759375e+05
    1.6768900678e-02    1.0132328906e+05
    1.6793908551e-02    1.0134074219e+05
    1.6818899661e-02    1.0138410156e+05
    1.6843874007e-02    1.0143839844e+05
    1.6868829727e-02    1.0150055469e+05
    1.6893770546e-02    1.0157878906e+05
    1.6918692738e-02    1.0165712500e+05
    1.6943598166e-02    1.0174057031e+05
    1.6968490556e-02    1.0182286719e+05
    1.6993366182e-02    1.0191189844e+05
    1.7018226907e-02    1.0199567969e+05
    1.7043072730e-02    1.0207735156e+05
    1.7067901790e-02    1.0215178906e+05
    1.7092714086e-02    1.0222078906e+05
    1.7117511481e-02    1.0228585156e+05
    1.7142292112e-02    1.0233688281e+05
    1.7167057842e-02    1.0238002344e+05
    1.7191808671e-02    1.0241502344e+05
    1.7216544598e-02    1.0244039844e+05
    1.7241263762e-02    1.0245134375e+05
    1.7265968025e-02    1.0245828906e+05
    1.7290659249e-02    1.0245653906e+05
    1.7315333709e-02    1.0245184375e+05
    1.7339993268e-02    1.0243461719e+05
    1.7364639789e-02    1.0241046094e+05
    1.7389267683e-02    1.0237567969e+05
    1.7413880676e-02    1.0233852344e+05
    1.7438478768e-02    1.0229715625e+05
    1.7463061959e-02    1.0225478906e+05
    1.7487626523e-02    1.0220378125e+05
    1.7512176186e-02    1.0214940625e+05
    1.7536709085e-02    1.0209528125e+05
    1.7561223358e-02    1.0204228906e+05
    1.7585720867e-02    1.0199600781e+05
    1.7610201612e-02    1.0195563281e+05
    1.7634663731e-02    1.0191128906e+05
    1.7659107223e-02    1.0187969531e+05
    1.7683532089e-02    1.0185100781e+05
    1.7707940191e-02    1.0183946094e+05
    1.7732329667e-02    1.0184287500e+05
    1.7756698653e-02    1.0185053906e+05
    1.7781050876e-02    1.0186814844e+05
    1.7805384472e-02    1.0189830469e+05
    1.7829699442e-02    1.0194372656e+05
    1.7853999510e-02    1.0200150000e+05
    1.7878280953e-02    1.0207485156e+05
    1.7902545631e-02    1.0216440625e+05
    1.7926793545e-02    1.0225921094e+05
    1.7951028422e-02    1.0236872656e+05
    1.7975246534e-02    1.0249947656e+05
    1.7999447882e-02    1.0263805469e+05
    1.8023636192e-02    1.0277785156e+05
    1.8047811463e-02    1.0292572656e+05
    1.8071975559e-02    1.0306696875e+05
    1.8096126616e-02    1.0320047656e+05
    1.8120266497e-02    1.0331896094e+05
    1.8144397065e-02    1.0341049219e+05
    1.8168520182e-02    1.0346250000e+05
    1.8192630261e-02    1.0348385156e+05
    1.8216732889e-02    1.0346647656e+05
    1.8240824342e-02    1.0341466406e+05
    1.8264908344e-02    1.0332438281e+05
    1.8288983032e-02    1.0319347656e+05
    1.8313048407e-02    1.0301939844e+05
    1.8337102607e-02    1.0280183594e+05
    1.8361147493e-02    1.0255630469e+05
    1.8385183066e-02    1.0229112500e+05
    1.8409207463e-02    1.0201494531e+05
    1.8433224410e-02    1.0174513281e+05
    1.8457230181e-02    1.0148891406e+05
    1.8481226638e-02    1.0125496094e+05
    1.8505210057e-02    1.0105108594e+05
    1.8529184163e-02    1.0088650781e+05
    1.8553148955e-02    1.0074984375e+05
    1.8577100709e-02    1.0065457031e+05
    1.8601041287e-02    1.0058464844e+05
    1.8624972552e-02    1.0054509375e+05
    1.8648892641e-02    1.0052453906e+05
    1.8672801554e-02    1.0052616406e+05
    1.8696699291e-02    1.0054083594e+05
    1.8720587716e-02    1.0057028125e+05
    1.8744463101e-02    1.0061535156e+05
    1.8768329173e-02    1.0066103906e+05
    1.8792184070e-02    1.0071753906e+05
    1.8816027790e-02    1.0077596094e+05
    1.8839860335e-02    1.0084942969e+05
    1.8863683566e-02    1.0092435156e+05
    1.8887493759e-02    1.0100400781e+05
    1.8911294639e-02    1.0107757031e+05
    1.8935086206e-02    1.0114703906e+05
    1.8958866596e-02    1.0121003125e+05
    1.8982635811e-02    1.0126856250e+05
    1.9006397575e-02    1.0132269531e+05
    1.9030146301e-02    1.0137522656e+05
    1.9053885713e-02    1.0142046875e+05
    1.9077615812e-02    1.0145714844e+05
    1.9101334736e-02    1.0149657031e+05
    1.9125042483e-02    1.0154239844e+05
    1.9148740917e-02    1.0158417969e+05
    1.9172428176e-02    1.0163793750e+05
    1.9196104258e-02    1.0169083594e+05
    1.9219771028e-02    1.0174615625e+05
    1.9243424758e-02    1.0180497656e+05
    1.9267069176e-02    1.0185677344e+05
    1.9290700555e-02    1.0191414844e+05
    1.9314322621e-02    1.0196903906e+05
    1.9337931648e-02    1.0201942969e+05
    1.9361529499e-02    1.0206663281e+05
    1.9385114312e-02    1.0211242969e+05
    1.9408687949e-02    1.0215350000e+05
    1.9432250410e-02    1.0218996094e+05
    1.9455801696e-02    1.0221974219e+05
    1.9479339942e-02    1.0225352344e+05
    1.9502865151e-02    1.0228580469e+05
    1.9526379183e-02    1.0231688281e+05
    1.9549878314e-02    1.0234194531e+05
    1.9573366269e-02    1.0236196094e+05
    1.9596841186e-02    1.0238253125e+05
    1.9620303065e-02    1.0240325000e+05
    1.9643751904e-02    1.0242184375e+05
    1.9667187706e-02    1.0243685156e+05
    1.9690606743e-02    1.0244507031e+05
    1.9714014605e-02    1.0244900000e+05
    1.9737409428e-02    1.0245252344e+05
    1.9760791212e-02    1.0245382031e+05
    1.9784159958e-02    1.0244305469e+05
    1.9807513803e-02    1.0243465625e+05
    1.9830854610e-02    1.0242543750e+05
    1.9854182377e-02    1.0242105469e+05
    1.9877497107e-02    1.0241047656e+05
    1.9900798798e-02    1.0239621094e+05
    1.9924087450e-02    1.0237985156e+05
    1.9947361201e-02    1.0236314844e+05
    1.9970623776e-02    1.0234852344e+05
    1.9993871450e-02    1.0233584375e+05
    2.0017107949e-02    1.0232058594e+05
    2.0040329546e-02    1.0230546094e+05
    2.0063538104e-02    1.0228917969e+05
    2.0086731762e-02    1.0226778125e+05
    2.0109914243e-02    1.0225533594e+05
    2.0133081824e-02    1.0223613281e+05
    2.0156236365e-02    1.0222683594e+05
    2.0179376006e-02    1.0220824219e+05
    2.0202504471e-02    1.0219821875e+05
    2.0225618035e-02    1.0219075000e+05
    2.0248720422e-02    1.0218160156e+05
    2.0271807909e-02    1.0216435156e+05
    2.0294882357e-02    1.0215557031e+05
    2.0317947492e-02    1.0214766406e+05
    2.0340997726e-02    1.0213906250e+05
    2.0364036784e-02    1.0212450781e+05
    2.0387060940e-02    1.0211475781e+05
    2.0410073921e-02    1.0210383594e+05
    2.0433073863e-02    1.0209477344e+05
    2.0456060767e-02    1.0208455469e+05
    2.0479036495e-02    1.0207553125e+05
    2.0501999184e-02    1.0206538281e+05
    2.0524948835e-02    1.0206071875e+05
    2.0547885448e-02    1.0205591406e+05
    2.0570809022e-02    1.0204621875e+05
    2.0593719557e-02    1.0203367969e+05
    2.0616617054e-02    1.0203271094e+05
    2.0639499649e-02    1.0202446875e+05
    2.0662369207e-02    1.0201781250e+05
    2.0685223863e-02    1.0201455469e+05
    2.0708063617e-02    1.0201247656e+05
    2.0730890334e-02    1.0200547656e+05
    2.0753700286e-02    1.0199986719e+05
    2.0776495337e-02    1.0199244531e+05
    2.0799275488e-02    1.0198699219e+05
    2.0822042599e-02    1.0197672656e+05
    2.0844791085e-02    1.0196918750e+05
    2.0867524669e-02    1.0196293750e+05
    2.0890241489e-02    1.0195802344e+05
    2.0912945271e-02    1.0194947656e+05
    2.0935632288e-02    1.0194077344e+05
    2.0958306268e-02    1.0192494531e+05
    2.0980965346e-02    1.0191535156e+05
    2.1003607661e-02    1.0190706250e+05
    2.1026238799e-02    1.0190407031e+05
    2.1048855036e-02    1.0190128906e+05
    2.1071458235e-02    1.0189400781e+05
    2.1094048396e-02    1.0188781250e+05
    2.1116625518e-02    1.0187471094e+05
    2.1139191464e-02    1.0186400000e+05
    2.1161744371e-02    1.0186162500e+05
    2.1184286103e-02    1.0185361719e+05
    2.1206818521e-02    1.0184671094e+05
    2.1229337901e-02    1.0183358594e+05
    2.1251846105e-02    1.0182602344e+05
    2.1274344996e-02    1.0181914844e+05
    2.1296832711e-02    1.0181108594e+05
    2.1319312975e-02    1.0179981250e+05
    2.1341778338e-02    1.0178349219e+05
    2.1364232525e-02    1.0177464844e+05
    2.1386675537e-02    1.0175512500e+05
    2.1409107372e-02    1.0175389844e+05
    2.1431528032e-02    1.0174462500e+05
    2.1453931928e-02    1.0173096875e+05
    2.1476324648e-02    1.0171847656e+05
    2.1498700604e-02    1.0170950781e+05
    2.1521063522e-02    1.0170064844e+05
    2.1543409675e-02    1.0169197656e+05
    2.1565740928e-02    1.0169303125e+05
    2.1588053554e-02    1.0168547656e+05
    2.1610351279e-02    1.0167868750e+05
    2.1632634103e-02    1.0167815625e+05
    2.1654898301e-02    1.0167709375e+05
    2.1677147597e-02    1.0168072656e+05
    2.1699378267e-02    1.0167628906e+05
    2.1721594036e-02    1.0167096094e+05
    2.1743793041e-02    1.0167596875e+05
    2.1765975282e-02    1.0167425000e+05
    2.1788140759e-02    1.0167971094e+05
    2.1810289472e-02    1.0168714844e+05
    2.1832419559e-02    1.0168694531e+05
    2.1854531020e-02    1.0168600781e+05
    2.1876627579e-02    1.0168507031e+05
    2.1898705512e-02    1.0168141406e+05
    2.1920768544e-02    1.0168502344e+05
    2.1942811087e-02    1.0169247656e+05
    2.1964838728e-02    1.0169453906e+05
    2.1986849606e-02    1.0169541406e+05
    2.2008845583e-02    1.0169044531e+05
    2.2030822933e-02    1.0168533594e+05
    2.2052785382e-02    1.0168708594e+05
    2.2074732929e-02    1.0168915625e+05
    2.2096665576e-02    1.0169166406e+05
    2.2118583322e-02    1.0169202344e+05
    2.2140489891e-02    1.0169464844e+05
    2.2162377834e-02    1.0169500781e+05
    2.2184254602e-02    1.0169602344e+05
    2.2206118330e-02    1.0169608594e+05
    2.2227969021e-02    1.0170025000e+05
    2.2249806672e-02    1.0170809375e+05
    2.2271629423e-02    1.0170957031e+05
    2.2293440998e-02    1.0170169531e+05
    2.2315241396e-02    1.0170233594e+05
    2.2337028757e-02    1.0170427344e+05
    2.2358803079e-02    1.0170653125e+05
    2.2380566224e-02    1.0171371094e+05
    2.2402318195e-02    1.0172110156e+05
    2.2424057126e-02    1.0172396094e+05
    2.2445784882e-02    1.0171641406e+05
    2.2467501462e-02    1.0171778125e+05
    2.2489206865e-02    1.0171913281e+05
    2.2510899231e-02    1.0172166406e+05
    2.2532582283e-02    1.0172303906e+05
    2.2554252297e-02    1.0172300000e+05
    2.2575911134e-02    1.0171741406e+05
    2.2597560659e-02    1.0171839844e+05
    2.2619199008e-02    1.0171762500e+05
    2.2640828043e-02    1.0171753125e+05
    2.2662445903e-02    1.0171991406e+05
    2.2684050724e-02    1.0171733594e+05
    2.2705646232e-02    1.0172046875e+05
    2.2727232426e-02    1.0171892969e+05
    2.2748809308e-02    1.0172085156e+05
    2.2770375013e-02    1.0172758594e+05
    2.2791929543e-02    1.0173216406e+05
    2.2813472897e-02    1.0173336719e+05
    2.2835006937e-02    1.0173300000e+05
    2.2856531665e-02    1.0173340625e+05
    2.2878047079e-02    1.0173919531e+05
    2.2899549454e-02    1.0174125000e+05
    2.2921044379e-02    1.0174819531e+05
    2.2942528129e-02    1.0175196094e+05
    2.2964000702e-02    1.0175464844e+05
    2.2985465825e-02    1.0175849219e+05
    2.3006917909e-02    1.0176181250e+05
    2.3028360680e-02    1.0176571875e+05
    2.3049792275e-02    1.0177372656e+05
    2.3071214557e-02    1.0177391406e+05
    2.3092625663e-02    1.0177771094e+05
    2.3114029318e-02    1.0178222656e+05
    2.3135419935e-02    1.0178561719e+05
    2.3156799376e-02    1.0178999219e+05
    2.3178169504e-02    1.0178949219e+05
    2.3199530318e-02    1.0179342969e+05
    2.3220879957e-02    1.0179722656e+05
    2.3242218420e-02    1.0179633594e+05
    2.3263547570e-02    1.0179891406e+05
    2.3284865543e-02    1.0180671875e+05
    2.3306174204e-02    1.0180600781e+05
    2.3327469826e-02    1.0181052344e+05
    2.3348756135e-02    1.0181315625e+05
    2.3370031267e-02    1.0181435156e+05
    2.3391297087e-02    1.0180828906e+05
    2.3412553594e-02    1.0180664844e+05
    2.3433798924e-02    1.0181252344e+05
    2.3455033079e-02    1.0181659375e+05
    2.3476256058e-02    1.0182141406e+05
    2.3497469723e-02    1.0182360156e+05
    2.3518672213e-02    1.0181972656e+05
    2.3539865389e-02    1.0181428906e+05
    2.3561049253e-02    1.0182432031e+05
    2.3582221940e-02    1.0182496094e+05
    2.3603385314e-02    1.0183135156e+05
    2.3624535650e-02    1.0183891406e+05
    2.3645676672e-02    1.0184558594e+05
    2.3666808382e-02    1.0185238281e+05
    2.3687927052e-02    1.0185439844e+05
    2.3709038273e-02    1.0185768750e+05
    2.3730138317e-02    1.0186833594e+05
    2.3751227185e-02    1.0187977344e+05
    2.3772306740e-02    1.0188978906e+05
    2.3793375120e-02    1.0191018750e+05
    2.3814432323e-02    1.0192485156e+05
    2.3835480213e-02    1.0194103906e+05
    2.3856516927e-02    1.0196052344e+05
    2.3877544329e-02    1.0198150000e+05
    2.3898560554e-02    1.0200221094e+05
    2.3919565603e-02    1.0202028906e+05
    2.3940561339e-02    1.0203956250e+05
    2.3961545900e-02    1.0205685156e+05
    2.3982519284e-02    1.0207435156e+05
    2.4003483355e-02    1.0208664844e+05
    2.4024436250e-02    1.0209646875e+05
    2.4045377970e-02    1.0210914844e+05
    2.4066310376e-02    1.0212217969e+05
    2.4087233469e-02    1.0213478906e+05
    2.4108145386e-02    1.0213597656e+05
    2.4129044265e-02    1.0213568750e+05
    2.4149935693e-02    1.0212555469e+05
    2.4170814082e-02    1.0211461719e+05
    2.4191683158e-02    1.0210274219e+05
    2.4212542921e-02    1.0208635156e+05
    2.4233391508e-02    1.0206291406e+05
    2.4254228920e-02    1.0203085156e+05
    2.4275057018e-02    1.0199853906e+05
    2.4295873940e-02    1.0196313281e+05
    2.4316681549e-02    1.0192315625e+05
    2.4337477982e-02    1.0187977344e+05
    2.4358265102e-02    1.0183946875e+05
    2.4379042909e-02    1.0179713281e+05
    2.4399809539e-02    1.0174957031e+05
    2.4420566857e-02    1.0170585156e+05
    2.4441312999e-02    1.0167077344e+05
    2.4462047964e-02    1.0163896094e+05
    2.4482775480e-02    1.0162285156e+05
    2.4503491819e-02    1.0161646094e+05
    2.4524198845e-02    1.0161794531e+05
    2.4544894695e-02    1.0161753125e+05
    2.4565581232e-02    1.0162981250e+05
    2.4586258456e-02    1.0165258594e+05
    2.4606924504e-02    1.0167525000e+05
    2.4627581239e-02    1.0170503906e+05
    2.4648228660e-02    1.0173947656e+05
    2.4668866768e-02    1.0176786719e+05
    2.4689495564e-02    1.0178972656e+05
    2.4710113183e-02    1.0182425000e+05
    2.4730721489e-02    1.0185040625e+05
    2.4751318619e-02    1.0187241406e+05
    2.4771906435e-02    1.0189694531e+05
    2.4792486802e-02    1.0192000781e+05
    2.4813055992e-02    1.0193625781e+05
    2.4833614007e-02    1.0195414844e+05
    2.4854162708e-02    1.0196746094e+05
    2.4874702096e-02    1.0198228906e+05
    2.4895232171e-02    1.0199739844e+05
    2.4915752932e-02    1.0200122656e+05
    2.4936262518e-02    1.0201209375e+05
    2.4956764653e-02    1.0202172656e+05
    2.4977253750e-02    1.0202616406e+05
    2.4997735396e-02    1.0203536719e+05
    2.5018205866e-02    1.0203986719e+05
    2.5038668886e-02    1.0205478125e+05
    2.5059120730e-02    1.0207002344e+05
    2.5079563260e-02    1.0208350000e+05
    2.5099996477e-02    1.0210258594e+05
    2.5120420381e-02    1.0211897656e+05
    2.5140833110e-02    1.0212966406e+05
    2.5161236525e-02    1.0214561719e+05
    2.5181630626e-02    1.0215364844e+05
    2.5202017277e-02    1.0217500000e+05
    2.5222390890e-02    1.0219183594e+05
    2.5242757052e-02    1.0221438281e+05
    2.5263112038e-02    1.0222333594e+05
    2.5283459574e-02    1.0224258594e+05
    2.5303795934e-02    1.0225003906e+05
    2.5324124843e-02    1.0226735156e+05
    2.5344440714e-02    1.0227438281e+05
    2.5364749134e-02    1.0228078906e+05
    2.5385048240e-02    1.0228571094e+05
    2.5405339897e-02    1.0229856250e+05
    2.5425618514e-02    1.0230728906e+05
    2.5445887819e-02    1.0231910156e+05
    2.5466147810e-02    1.0232235156e+05
    2.5486400351e-02    1.0232762500e+05
    2.5506639853e-02    1.0233153125e+05
    2.5526873767e-02    1.0232862500e+05
    2.5547094643e-02    1.0232532031e+05
    2.5567308068e-02    1.0232760156e+05
    2.5587510318e-02    1.0232639844e+05
    2.5607703254e-02    1.0232788281e+05
    2.5627886876e-02    1.0232522656e+05
    2.5648061186e-02    1.0231705469e+05
    2.5668226182e-02    1.0231135156e+05
    2.5688380003e-02    1.0230533594e+05
    2.5708526373e-02    1.0230316406e+05
    2.5728661567e-02    1.0229409375e+05
    2.5748789310e-02    1.0228900781e+05
    2.5768904015e-02    1.0228558594e+05
    2.5789011270e-02    1.0227688281e+05
    2.5809109211e-02    1.0226853906e+05
    2.5829195976e-02    1.0225535156e+05
    2.5849273428e-02    1.0224708594e+05
    2.5869343430e-02    1.0224000000e+05
    2.5889402255e-02    1.0222836719e+05
    2.5909451768e-02    1.0222009375e+05
    2.5929493830e-02    1.0221103906e+05
    2.5949522853e-02    1.0220166406e+05
    2.5969544426e-02    1.0219310156e+05
    2.5989556685e-02    1.0218422656e+05
    2.6009559631e-02    1.0217624219e+05
    2.6029553264e-02    1.0216460156e+05
    2.6049537584e-02    1.0215992969e+05
    2.6069512591e-02    1.0215311719e+05
    2.6089478284e-02    1.0214858594e+05
    2.6109432802e-02    1.0214057031e+05
    2.6129379869e-02    1.0213361719e+05
    2.6149315760e-02    1.0212308594e+05
    2.6169244200e-02    1.0211589844e+05
    2.6189163327e-02    1.0211347656e+05
    2.6209073141e-02    1.0210685156e+05
    2.6228975505e-02    1.0210977344e+05
    2.6248866692e-02    1.0210397656e+05
    2.6268748567e-02    1.0209964844e+05
    2.6288621128e-02    1.0209456250e+05
    2.6308484375e-02    1.0210086719e+05
    2.6328338310e-02    1.0209733594e+05
    2.6348184794e-02    1.0209535156e+05
    2.6368021965e-02    1.0210075781e+05
    2.6387847960e-02    1.0209897656e+05
    2.6407664642e-02    1.0209616406e+05
    2.6427472010e-02    1.0209236719e+05
    2.6447271928e-02    1.0209511719e+05
    2.6467062533e-02    1.0209816406e+05
    2.6486843824e-02    1.0209386719e+05
    2.6506617665e-02    1.0209289844e+05
    2.6526380330e-02    1.0208436719e+05
    2.6546133682e-02    1.0209178906e+05
    2.6565877721e-02    1.0208852344e+05
    2.6585612446e-02    1.0208553125e+05
    2.6605339721e-02    1.0208497656e+05
    2.6625057682e-02    1.0208335156e+05
    2.6644766331e-02    1.0208242969e+05
    2.6664465666e-02    1.0208158594e+05
    2.6684155688e-02    1.0208033594e+05
    2.6703836396e-02    1.0208786719e+05
    2.6723509654e-02    1.0208739844e+05
    2.6743173599e-02    1.0207596875e+05
    2.6762828231e-02    1.0207606250e+05
    2.6782475412e-02    1.0207528125e+05
    2.6802113280e-02    1.0208402344e+05
    2.6821739972e-02    1.0208421094e+05
    2.6841359213e-02    1.0207661719e+05
    2.6860967278e-02    1.0207653125e+05
    2.6880569756e-02    1.0208293750e+05
    2.6900164783e-02    1.0208253906e+05
    2.6919748634e-02    1.0208333594e+05
    2.6939325035e-02    1.0208305469e+05
    2.6958892122e-02    1.0208287500e+05
    2.6978449896e-02    1.0208272656e+05
    2.6997998357e-02    1.0208291406e+05
    2.7017539367e-02    1.0208809375e+05
    2.7037071064e-02    1.0209399219e+05
    2.7056595311e-02    1.0209438281e+05
    2.7076110244e-02    1.0209415625e+05
    2.7095617726e-02    1.0208967969e+05
    2.7115115896e-02    1.0208903906e+05
    2.7134604752e-02    1.0209471875e+05
    2.7154086158e-02    1.0209703906e+05
    2.7173558250e-02    1.0209596094e+05
    2.7193021029e-02    1.0209428125e+05
    2.7212476358e-02    1.0209141406e+05
    2.7231922373e-02    1.0209253906e+05
    2.7251357213e-02    1.0209239844e+05
    2.7270786464e-02    1.0209275000e+05
    2.7290204540e-02    1.0209003906e+05
    2.7309613302e-02    1.0208725000e+05
    2.7329014614e-02    1.0208714844e+05
    2.7348404750e-02    1.0208931250e+05
    2.7367785573e-02    1.0209268750e+05
    2.7387158945e-02    1.0209153906e+05
    2.7406521142e-02    1.0208756250e+05
    2.7425874025e-02    1.0208777344e+05
    2.7445219457e-02    1.0209793750e+05
    2.7464553714e-02    1.0209897656e+05
    2.7483878657e-02    1.0209311719e+05
    2.7503194287e-02    1.0210178125e+05
    2.7522502467e-02    1.0210364844e+05
    2.7541799471e-02    1.0210568750e+05
    2.7561087161e-02    1.0210808594e+05
    2.7580365539e-02    1.0211558594e+05
    2.7599634603e-02    1.0212508594e+05
    2.7618894354e-02    1.0213285156e+05
    2.7638144791e-02    1.0214039844e+05
    2.7657385916e-02    1.0214130469e+05
    2.7676619589e-02    1.0214875000e+05
    2.7695843950e-02    1.0215935156e+05
    2.7715058997e-02    1.0217062500e+05
    2.7734262869e-02    1.0217828906e+05
    2.7753459290e-02    1.0218574219e+05
    2.7772648260e-02    1.0219353906e+05
    2.7791827917e-02    1.0220553906e+05
    2.7810998261e-02    1.0221316406e+05
    2.7830159292e-02    1.0221863281e+05
    2.7849311009e-02    1.0222527344e+05
    2.7868455276e-02    1.0223432031e+05
    2.7887590230e-02    1.0224921094e+05
    2.7906717733e-02    1.0225034375e+05
    2.7925835922e-02    1.0225352344e+05
    2.7944946662e-02    1.0225885156e+05
    2.7964048088e-02    1.0226396875e+05
    2.7983140200e-02    1.0226949219e+05
    2.8002224863e-02    1.0227360156e+05
    2.8021300212e-02    1.0227563281e+05
    2.8040368110e-02    1.0227615625e+05
    2.8059426695e-02    1.0227941406e+05
    2.8078475967e-02    1.0227064844e+05
    2.8097519651e-02    1.0227161719e+05
    2.8116554022e-02    1.0226944531e+05
    2.8135580942e-02    1.0226078125e+05
    2.8154598549e-02    1.0225827344e+05
    2.8173606843e-02    1.0225030469e+05
    2.8192607686e-02    1.0224172656e+05
    2.8211599216e-02    1.0223578906e+05
    2.8230583295e-02    1.0222905469e+05
    2.8249559924e-02    1.0221446875e+05
    2.8268527240e-02    1.0220132031e+05
    2.8287487105e-02    1.0219077344e+05
    2.8306435794e-02    1.0218185156e+05
    2.8325378895e-02    1.0216542969e+05
    2.8344312683e-02    1.0215446094e+05
    2.8363237157e-02    1.0214528125e+05
    2.8382156044e-02    1.0213675781e+05
    2.8401065618e-02    1.0212253906e+05
    2.8419965878e-02    1.0211431250e+05
    2.8438858688e-02    1.0210660156e+05
    2.8457742184e-02    1.0210017969e+05
    2.8476616368e-02    1.0209344531e+05
    2.8495483100e-02    1.0208705469e+05
    2.8514338657e-02    1.0208296875e+05
    2.8533160686e-02    1.0208403125e+05
    2.8551930562e-02    1.0208197656e+05
    2.8570635244e-02    1.0208939844e+05
    2.8589271009e-02    1.0209037500e+05
    2.8607837856e-02    1.0210178906e+05
    2.8626350686e-02    1.0211442969e+05
    2.8644818813e-02    1.0211839844e+05
    2.8663259000e-02    1.0213257031e+05
    2.8681686148e-02    1.0213697656e+05
    2.8700113297e-02    1.0214183594e+05
    2.8718546033e-02    1.0214589844e+05
    2.8736986220e-02    1.0215562500e+05
    2.8755431995e-02    1.0216053125e+05
    2.8773877770e-02    1.0216993750e+05
    2.8792314231e-02    1.0218096875e+05
    2.8810730204e-02    1.0218524219e+05
    2.8829116374e-02    1.0219011719e+05
    2.8847465292e-02    1.0219446875e+05
    2.8865773231e-02    1.0219819531e+05
    2.8884036466e-02    1.0220122656e+05
    2.8902258724e-02    1.0220478125e+05
    2.8920443729e-02    1.0220250781e+05
    2.8938598931e-02    1.0220578906e+05
    2.8956729919e-02    1.0220885156e+05
    2.8974846005e-02    1.0221114844e+05
    2.8992949054e-02    1.0221017969e+05
    2.9011042789e-02    1.0220887500e+05
    2.9029129073e-02    1.0221014844e+05
    2.9047204182e-02    1.0221107031e+05
    2.9065268114e-02    1.0220833594e+05
    2.9083315283e-02    1.0220636719e+05
    2.9101338238e-02    1.0220465625e+05
    2.9119335115e-02    1.0220450000e+05
    2.9137304053e-02    1.0220481250e+05
    2.9155241325e-02    1.0220450000e+05
    2.9173148796e-02    1.0220593750e+05
    2.9191024601e-02    1.0220635156e+05
    2.9208874330e-02    1.0220747656e+05
    2.9226697981e-02    1.0220858594e+05
    2.9244501144e-02    1.0220966406e+05
    2.9262285680e-02    1.0221246094e+05
    2.9280053452e-02    1.0221465625e+05
    2.9297806323e-02    1.0221628906e+05
    2.9315544292e-02    1.0221446094e+05
    2.9333265498e-02    1.0221621875e+05
    2.9350971803e-02    1.0222111719e+05
    2.9368655756e-02    1.0222268750e+05
    2.9386319220e-02    1.0222443750e+05
    2.9403960332e-02    1.0222746875e+05
    2.9421577230e-02    1.0223627344e+05
    2.9439168051e-02    1.0223369531e+05
    2.9456734657e-02    1.0223146094e+05
    2.9474277049e-02    1.0223253906e+05
    2.9491795227e-02    1.0223400000e+05
    2.9509292915e-02    1.0223413281e+05
    2.9526771978e-02    1.0223452344e+05
    2.9544232413e-02    1.0223019531e+05
    2.9561674222e-02    1.0222964844e+05
    2.9579099268e-02    1.0222531250e+05
    2.9596509412e-02    1.0222439844e+05
    2.9613900930e-02    1.0222390625e+05
    2.9631273821e-02    1.0222683594e+05
    2.9648626223e-02    1.0222731250e+05
    2.9665958136e-02    1.0222425781e+05
    2.9683271423e-02    1.0222052344e+05
    2.9700560495e-02    1.0222089844e+05
    2.9717829078e-02    1.0222141406e+05
    2.9735075310e-02    1.0222952344e+05
    2.9752301052e-02    1.0222266406e+05
    2.9769508168e-02    1.0222046875e+05
    2.9786696658e-02    1.0222053125e+05
    2.9803866521e-02    1.0222453125e+05
    2.9821017757e-02    1.0222867969e+05
    2.9838152230e-02    1.0221943750e+05
    2.9855269939e-02    1.0222050000e+05
    2.9872370884e-02    1.0222521875e+05
    2.9889453202e-02    1.0222641406e+05
    2.9906518757e-02    1.0222665625e+05
    2.9923565686e-02    1.0222692969e+05
    2.9940593988e-02    1.0223200000e+05
    2.9957601801e-02    1.0223147656e+05
    2.9974590987e-02    1.0223059375e+05
    2.9991561547e-02    1.0223907031e+05
    3.0008511618e-02    1.0223553906e+05
    3.0025444925e-02    1.0224214844e+05
    3.0042361468e-02    1.0223324219e+05
    3.0059259385e-02    1.0223406250e+05
    3.0076142401e-02    1.0223533594e+05
    3.0093006790e-02    1.0223584375e+05
    3.0109854415e-02    1.0223585156e+05
    3.0126683414e-02    1.0222610156e+05
    3.0143497512e-02    1.0221509375e+05
    3.0160292983e-02    1.0221394531e+05
    3.0177071691e-02    1.0220338281e+05
    3.0193833634e-02    1.0220194531e+05
    3.0210576952e-02    1.0220021875e+05
    3.0227303505e-02    1.0220666406e+05
    3.0244011432e-02    1.0219691406e+05
    3.0260702595e-02    1.0219550781e+05
    3.0277376994e-02    1.0219242969e+05
    3.0294034630e-02    1.0218005469e+05
    3.0310675502e-02    1.0216638281e+05
    3.0327299610e-02    1.0216256250e+05
    3.0343905091e-02    1.0215752344e+05
    3.0360495672e-02    1.0215385156e+05
    3.0377071351e-02    1.0215522656e+05
    3.0393628404e-02    1.0215580469e+05
    3.0410168692e-02    1.0215293750e+05
    3.0426690355e-02    1.0215962500e+05
    3.0443195254e-02    1.0215742969e+05
    3.0459685251e-02    1.0215549219e+05
    3.0476156622e-02    1.0215800000e+05
    3.0492611229e-02    1.0216199219e+05
    3.0509050936e-02    1.0217015625e+05
    3.0525473878e-02    1.0217519531e+05
    3.0541881919e-02    1.0218078906e+05
    3.0558273196e-02    1.0219233594e+05
    3.0574647710e-02    1.0219588281e+05
    3.0591005459e-02    1.0220546094e+05
    3.0607348308e-02    1.0220853906e+05
    3.0623674393e-02    1.0221655469e+05
    3.0639985576e-02    1.0222478906e+05
    3.0656279996e-02    1.0222986719e+05
    3.0672557652e-02    1.0223291406e+05
    3.0688818544e-02    1.0224264844e+05
    3.0705062672e-02    1.0225127344e+05
    3.0721291900e-02    1.0225538281e+05
    3.0737506226e-02    1.0226052344e+05
    3.0753703788e-02    1.0226096094e+05
    3.0769886449e-02    1.0225977344e+05
    3.0786054209e-02    1.0226427344e+05
    3.0802207068e-02    1.0226743750e+05
    3.0818343163e-02    1.0227043750e+05
    3.0834466219e-02    1.0227196094e+05
    3.0850572512e-02    1.0226821094e+05
    3.0866663903e-02    1.0227103906e+05
    3.0882738531e-02    1.0227364844e+05
    3.0898798257e-02    1.0226737500e+05
    3.0914843082e-02    1.0227003906e+05
    3.0930871144e-02    1.0227252344e+05
    3.0946886167e-02    1.0227358594e+05
    3.0962884426e-02    1.0226575781e+05
    3.0978867784e-02    1.0226690625e+05
    3.0994836241e-02    1.0226785156e+05
    3.1010789797e-02    1.0226866406e+05
    3.1026728451e-02    1.0226931250e+05
    3.1042650342e-02    1.0226102344e+05
    3.1058559194e-02    1.0226058594e+05
    3.1074455008e-02    1.0225996875e+05
    3.1090334058e-02    1.0226044531e+05
    3.1106200069e-02    1.0226077344e+05
    3.1122051179e-02    1.0225515625e+05
    3.1137887388e-02    1.0224975781e+05
    3.1153710559e-02    1.0224877344e+05
    3.1169516966e-02    1.0224753906e+05
    3.1185310334e-02    1.0223677344e+05
    3.1201090664e-02    1.0223496875e+05
    3.1216854230e-02    1.0223300781e+05
    3.1232602894e-02    1.0223037500e+05
    3.1248336658e-02    1.0222877344e+05
    3.1264055520e-02    1.0222372656e+05
    3.1279761344e-02    1.0222197656e+05
    3.1295452267e-02    1.0222134375e+05
    3.1311132014e-02    1.0221957031e+05
    3.1326796860e-02    1.0221722656e+05
    3.1342446804e-02    1.0220969531e+05
    3.1358085573e-02    1.0220717969e+05
    3.1373709440e-02    1.0221005469e+05
    3.1389318407e-02    1.0220733594e+05
    3.1404916197e-02    1.0220591406e+05
    3.1420499086e-02    1.0220466406e+05
    3.1436067075e-02    1.0220240625e+05
    3.1451620162e-02    1.0220153906e+05
    3.1467158347e-02    1.0220497656e+05
    3.1482685357e-02    1.0220800781e+05
    3.1498193741e-02    1.0220841406e+05
    3.1513694674e-02    1.0220672656e+05
    3.1529176980e-02    1.0221221094e+05
    3.1544648111e-02    1.0221538281e+05
    3.1560108066e-02    1.0221521094e+05
    3.1575553119e-02    1.0221493750e+05
    3.1590986997e-02    1.0221467969e+05
    3.1606405973e-02    1.0221375781e+05
    3.1621813774e-02    1.0221286719e+05
    3.1637206674e-02    1.0221033594e+05
    3.1652588397e-02    1.0221299219e+05
    3.1667951494e-02    1.0221292969e+05
    3.1683307141e-02    1.0221302344e+05
    3.1698647887e-02    1.0221366406e+05
    3.1713977456e-02    1.0220921094e+05
    3.1729292125e-02    1.0220855469e+05
    3.1744595617e-02    1.0220422656e+05
    3.1759884208e-02    1.0220450000e+05
    3.1775161624e-02    1.0220358594e+05
    3.1790427864e-02    1.0220322656e+05
    3.1805675477e-02    1.0220292969e+05
    3.1820915639e-02    1.0220721875e+05
    3.1836140901e-02    1.0220716406e+05
    3.1851354986e-02    1.0221308594e+05
    3.1866557896e-02    1.0221334375e+05
    3.1881745905e-02    1.0221371094e+05
    3.1896922737e-02    1.0221467969e+05
    3.1912088394e-02    1.0221521094e+05
    3.1927239150e-02    1.0221524219e+05
    3.1942378730e-02    1.0221534375e+05
    3.1957507133e-02    1.0221615625e+05
    3.1972620636e-02    1.0222172656e+05
    3.1987726688e-02    1.0222278906e+05
    3.2002814114e-02    1.0221980469e+05
    3.2017890364e-02    1.0222147656e+05
    3.2032959163e-02    1.0222196094e+05
    3.2048013061e-02    1.0222290625e+05
    3.2063052058e-02    1.0222371094e+05
    3.2078083605e-02    1.0222546094e+05
    3.2093103975e-02    1.0222586719e+05
    3.2108109444e-02    1.0221689844e+05
    3.2123107463e-02    1.0221703906e+05
    3.2138090581e-02    1.0222357031e+05
    3.2153062522e-02    1.0222668750e+05
    3.2168023288e-02    1.0222652344e+05
    3.2182972878e-02    1.0222753125e+05
    3.2197911292e-02    1.0222688281e+05
    3.2212834805e-02    1.0222802344e+05
    3.2227750868e-02    1.0222860156e+05
    3.2242652029e-02    1.0222857031e+05
    3.2257542014e-02    1.0222921094e+05
    3.2272424549e-02    1.0222927344e+05
    3.2287292182e-02    1.0223047656e+05
    3.2302148640e-02    1.0223110156e+05
    3.2316997647e-02    1.0223162500e+05
    3.2331831753e-02    1.0223264844e+05
    3.2346658409e-02    1.0223247656e+05
    3.2361470163e-02    1.0223064844e+05
    3.2376270741e-02    1.0223380469e+05
    3.2391063869e-02    1.0223471094e+05
    3.2405842096e-02    1.0223503906e+05
    3.2420612872e-02    1.0223303125e+05
    3.2435368747e-02    1.0223335156e+05
    3.2450113446e-02    1.0223612500e+05
    3.2464850694e-02    1.0223668750e+05
    3.2479573041e-02    1.0223793750e+05
    3.2494287938e-02    1.0223934375e+05
    3.2508991659e-02    1.0224032031e+05
    3.2523684204e-02    1.0224146875e+05
    3.2538365573e-02    1.0224743750e+05
    3.2553035766e-02    1.0224821875e+05
    3.2567698509e-02    1.0224666406e+05
    3.2582346350e-02    1.0224617969e+05
    3.2596986741e-02    1.0224797656e+05
    3.2611619681e-02    1.0224918750e+05
    3.2626237720e-02    1.0225033594e+05
    3.2640848309e-02    1.0225142969e+05
    3.2655447721e-02    1.0225260156e+05
    3.2670035958e-02    1.0225377344e+05
    3.2684613019e-02    1.0225491406e+05
    3.2699178904e-02    1.0225664844e+05
    3.2713737339e-02    1.0225828125e+05
    3.2728284597e-02    1.0225936719e+05
    3.2742820680e-02    1.0225910156e+05
    3.2757349312e-02    1.0225871094e+05
    3.2771866769e-02    1.0225464844e+05
    3.2786373049e-02    1.0225271875e+05
    3.2800871879e-02    1.0225316406e+05
    3.2815355808e-02    1.0225771094e+05
    3.2829832286e-02    1.0226292969e+05
    3.2844301313e-02    1.0226414844e+05
    3.2858755440e-02    1.0226477344e+05
    3.2873202115e-02    1.0225610156e+05
    3.2887637615e-02    1.0225653906e+05
    3.2902065665e-02    1.0225989844e+05
    3.2916482538e-02    1.0225757031e+05
    3.2930891961e-02    1.0226094531e+05
    3.2945290208e-02    1.0226208594e+05
    3.2959677279e-02    1.0226036719e+05
    3.2974056900e-02    1.0226035156e+05
    3.2988425344e-02    1.0226022656e+05
    3.3002786338e-02    1.0226062500e+05
    3.3017136157e-02    1.0226144531e+05
    3.3031478524e-02    1.0226208594e+05
    3.3045809716e-02    1.0225674219e+05
    3.3060129732e-02    1.0225146875e+05
    3.3074442297e-02    1.0225121094e+05
    3.3088747412e-02    1.0224971875e+05
    3.3103041351e-02    1.0224822656e+05
    3.3117324114e-02    1.0224850000e+05
    3.3131599426e-02    1.0224671875e+05
    3.3145863563e-02    1.0225218750e+05
    3.3160120249e-02    1.0225543750e+05
    3.3174365759e-02    1.0225663281e+05
    3.3188603818e-02    1.0225613281e+05
    3.3202830702e-02    1.0225544531e+05
    3.3217050135e-02    1.0225272656e+05
    3.3231258392e-02    1.0224497656e+05
    3.3245459199e-02    1.0224259375e+05
    3.3259648830e-02    1.0223822656e+05
    3.3273831010e-02    1.0223485156e+05
    3.3288005739e-02    1.0222843750e+05
    3.3302169293e-02    1.0223146875e+05
    3.3316325396e-02    1.0223013281e+05
    3.3330474049e-02    1.0223289844e+05
    3.3344611526e-02    1.0223125000e+05
    3.3358741552e-02    1.0223017969e+05
    3.3372864127e-02    1.0222897656e+05
    3.3386975527e-02    1.0221778906e+05
    3.3401079476e-02    1.0221600000e+05
    3.3415172249e-02    1.0221296875e+05
    3.3429257572e-02    1.0221091406e+05
    3.3443335444e-02    1.0220828906e+05
    3.3457405865e-02    1.0221099219e+05
    3.3471468836e-02    1.0220903125e+05
    3.3485524356e-02    1.0220464844e+05
    3.3499568701e-02    1.0220027344e+05
    3.3513605595e-02    1.0219917969e+05
    3.3527631313e-02    1.0219681250e+05
    3.3541653305e-02    1.0219487500e+05
    3.3555664122e-02    1.0219072656e+05
    3.3569667488e-02    1.0218700781e+05
    3.3583663404e-02    1.0217968750e+05
    3.3597648144e-02    1.0217938281e+05
    3.3611625433e-02    1.0218108594e+05
    3.3625595272e-02    1.0217943750e+05
    3.3639557660e-02    1.0217800781e+05
    3.3653512597e-02    1.0217677344e+05
    3.3667460084e-02    1.0217514844e+05
    3.3681396395e-02    1.0217490625e+05
    3.3695328981e-02    1.0217478906e+05
    3.3709254116e-02    1.0218290625e+05
    3.3723168075e-02    1.0218308594e+05
    3.3737078309e-02    1.0218203906e+05
    3.3750977367e-02    1.0217234375e+05
    3.3764872700e-02    1.0217178125e+05
    3.3778760582e-02    1.0217066406e+05
    3.3792637289e-02    1.0217078125e+05
    3.3806510270e-02    1.0217467969e+05
    3.3820372075e-02    1.0217855469e+05
    3.3834230155e-02    1.0217628125e+05
    3.3848077059e-02    1.0217410156e+05
    3.3861916512e-02    1.0217353906e+05
    3.3875752240e-02    1.0217593750e+05
    3.3889576793e-02    1.0217778906e+05
    3.3903393894e-02    1.0217509375e+05
    3.3917203546e-02    1.0217178125e+05
    3.3931009471e-02    1.0217310156e+05
    3.3944804221e-02    1.0217432031e+05
    3.3958595246e-02    1.0217383594e+05
    3.3972378820e-02    1.0217171875e+05
    3.3986151218e-02    1.0217127344e+05
    3.3999919891e-02    1.0217133594e+05
    3.4013681114e-02    1.0216794531e+05
    3.4027434886e-02    1.0217131250e+05
    3.4041177481e-02    1.0217078906e+05
    3.4054916352e-02    1.0216515625e+05
    3.4068647772e-02    1.0216406250e+05
    3.4082375467e-02    1.0216633594e+05
    3.4096091986e-02    1.0216353906e+05
    3.4109804779e-02    1.0216240625e+05
    3.4123510122e-02    1.0215883594e+05
    3.4137208015e-02    1.0215521094e+05
    3.4150898457e-02    1.0215496094e+05
    3.4164581448e-02    1.0215352344e+05
    3.4178260714e-02    1.0215263281e+05
    3.4191932529e-02    1.0215406250e+05
    3.4205596894e-02    1.0215312500e+05
    3.4219253808e-02    1.0215383594e+05
    3.4232903272e-02    1.0214850781e+05
    3.4246545285e-02    1.0214662500e+05
    3.4260183573e-02    1.0214517969e+05
    3.4273810685e-02    1.0214356250e+05
    3.4287434071e-02    1.0214189844e+05
    3.4301050007e-02    1.0213957031e+05
    3.4314658493e-02    1.0213771094e+05
    3.4328263253e-02    1.0213122656e+05
    3.4341860563e-02    1.0212625781e+05
    3.4355450422e-02    1.0212185156e+05
    3.4369036555e-02    1.0212215625e+05
    3.4382611513e-02    1.0212664844e+05
    3.4396182746e-02    1.0212613281e+05
    3.4409742802e-02    1.0212400000e+05
    3.4423299134e-02    1.0212366406e+05
    3.4436848015e-02    1.0212228125e+05
    3.4450393170e-02    1.0212150000e+05
    3.4463927150e-02    1.0212016406e+05
    3.4477461129e-02    1.0211937500e+05
    3.4490987659e-02    1.0211849219e+05
    3.4504506737e-02    1.0211702344e+05
    3.4518022090e-02    1.0211490625e+05
    3.4531529993e-02    1.0211333594e+05
    3.4545030445e-02    1.0211011719e+05
    3.4558523446e-02    1.0211088281e+05
    3.4572008997e-02    1.0211067969e+05
    3.4585487098e-02    1.0210888281e+05
    3.4598957747e-02    1.0210778906e+05
    3.4612424672e-02    1.0210737500e+05
    3.4625884145e-02    1.0210703906e+05
    3.4639336169e-02    1.0210565625e+05
    3.4652780741e-02    1.0210492969e+05
    3.4666225314e-02    1.0210602344e+05
    3.4679658711e-02    1.0210825000e+05
    3.4693088382e-02    1.0210528906e+05
    3.4706510603e-02    1.0210160156e+05
    3.4719929099e-02    1.0210019531e+05
    3.4733340144e-02    1.0210047656e+05
    3.4746743739e-02    1.0209903125e+05
    3.4760143608e-02    1.0209802344e+05
    3.4773536026e-02    1.0209744531e+05
    3.4786924720e-02    1.0208641406e+05
    3.4800305963e-02    1.0208562500e+05
    3.4813679755e-02    1.0208484375e+05
    3.4827046096e-02    1.0208524219e+05
    3.4840408713e-02    1.0209147656e+05
    3.4853763878e-02    1.0209028906e+05
    3.4867111593e-02    1.0208838281e+05
    3.4880455583e-02    1.0208247656e+05
    3.4893795848e-02    1.0208046094e+05
    3.4907124937e-02    1.0207842969e+05
    3.4920454025e-02    1.0207571094e+05
    3.4933775663e-02    1.0207653906e+05
    3.4947093576e-02    1.0207006250e+05
    3.4960404038e-02    1.0206863281e+05
    3.4973710775e-02    1.0207247656e+05
    3.4987010062e-02    1.0206822656e+05
endcurve
