Curveplot
LS-DYNA keyword deck by LS-PrePost                          
Time
Pressure
Defined Connection
Pressure @ 46 #pts=1745
* Minval=     9.9425914062e+04 at time=         0.0154136764
* Maxval=     1.7002318750e+05 at time=         0.0065371059
    0.0000000000e+00    9.9999093750e+04
    3.3812357287e-05    9.9999093750e+04
    6.1326652940e-05    9.9998093750e+04
    8.9102875791e-05    9.9998117188e+04
    1.1682785407e-04    9.9999343750e+04
    1.4461828687e-04    9.9999632812e+04
    1.7236733402e-04    9.9998976562e+04
    2.0016246708e-04    1.0000860156e+05
    2.2795486439e-04    9.9999898438e+04
    2.5574557367e-04    1.0000032031e+05
    2.8353667585e-04    9.9995968750e+04
    3.1133697485e-04    9.9995562500e+04
    3.3912662184e-04    9.9999625000e+04
    3.6691734567e-04    1.0000041406e+05
    3.9470891352e-04    9.9999687500e+04
    4.2249175021e-04    1.0000196094e+05
    4.5027161832e-04    1.0000994531e+05
    4.7804549104e-04    1.0000202344e+05
    5.0581363030e-04    9.9992460938e+04
    5.3357944125e-04    9.9990625000e+04
    5.6134146871e-04    9.9999351562e+04
    5.8909942163e-04    1.0000632031e+05
    6.1685312539e-04    1.0000286719e+05
    6.4460188150e-04    1.0000360156e+05
    6.7234638846e-04    1.0000456250e+05
    7.0008635521e-04    1.0000349219e+05
    7.2782178177e-04    9.9992156250e+04
    7.5555208605e-04    9.9991156250e+04
    7.8327720985e-04    1.0000034375e+05
    8.1099680392e-04    1.0001160156e+05
    8.3871174138e-04    1.0000288281e+05
    8.6642213864e-04    1.0000336719e+05
    8.9412782108e-04    9.9993085938e+04
    9.2182843946e-04    9.9996625000e+04
    9.4952445943e-04    1.0000150781e+05
    9.7721535712e-04    1.0000133594e+05
    1.0049008997e-03    1.0000164844e+05
    1.0325826006e-03    9.9992429688e+04
    1.0602590628e-03    9.9997226562e+04
    1.0879321489e-03    1.0000275000e+05
    1.1155996472e-03    1.0001274219e+05
    1.1432634201e-03    1.0000291406e+05
    1.1709230021e-03    9.9992289062e+04
    1.1985785095e-03    9.9988656250e+04
    1.2262313394e-03    9.9990164062e+04
    1.2538790470e-03    1.0000941406e+05
    1.2815232622e-03    1.0000999219e+05
    1.3091630535e-03    1.0000266406e+05
    1.3368004002e-03    1.0000460156e+05
    1.3644339051e-03    1.0000925000e+05
    1.3920635683e-03    1.0002462500e+05
    1.4196902048e-03    1.0005352344e+05
    1.4473132323e-03    1.0010039844e+05
    1.4749332331e-03    1.0018808594e+05
    1.5025498578e-03    1.0032602344e+05
    1.5301633393e-03    1.0052183594e+05
    1.5577742597e-03    1.0077278906e+05
    1.5853822697e-03    1.0109830469e+05
    1.6129877185e-03    1.0146831250e+05
    1.6405890929e-03    1.0186062500e+05
    1.6681876732e-03    1.0224877344e+05
    1.6957829939e-03    1.0260064844e+05
    1.7233766848e-03    1.0287416406e+05
    1.7509678146e-03    1.0305252344e+05
    1.7785291420e-03    1.0313809375e+05
    1.8060547300e-03    1.0313586719e+05
    1.8335470231e-03    1.0305410156e+05
    1.8610082334e-03    1.0292205469e+05
    1.8884401070e-03    1.0275071094e+05
    1.9158447394e-03    1.0257152344e+05
    1.9432241097e-03    1.0241696875e+05
    1.9705800805e-03    1.0229230469e+05
    1.9979148638e-03    1.0222202344e+05
    2.0252298564e-03    1.0219403906e+05
    2.0525271539e-03    1.0221583594e+05
    2.0798076876e-03    1.0227502344e+05
    2.1070730872e-03    1.0234746094e+05
    2.1343247499e-03    1.0242167969e+05
    2.1615643054e-03    1.0248247656e+05
    2.1887931507e-03    1.0252280469e+05
    2.2160108201e-03    1.0253844531e+05
    2.2432196420e-03    1.0253789844e+05
    2.2704207804e-03    1.0251549219e+05
    2.2976147011e-03    1.0248333594e+05
    2.3248014040e-03    1.0244287500e+05
    2.3519827519e-03    1.0241164844e+05
    2.3791582789e-03    1.0239200781e+05
    2.4063293822e-03    1.0238547656e+05
    2.4334960617e-03    1.0238887500e+05
    2.4606597144e-03    1.0240056250e+05
    2.4878205732e-03    1.0241464844e+05
    2.5149781723e-03    1.0242919531e+05
    2.5421329774e-03    1.0244271094e+05
    2.5692859199e-03    1.0244289844e+05
    2.5964374654e-03    1.0244566406e+05
    2.6235871483e-03    1.0243896875e+05
    2.6507352013e-03    1.0243475781e+05
    2.6778825559e-03    1.0242921094e+05
    2.7050296776e-03    1.0242266406e+05
    2.7321761008e-03    1.0241816406e+05
    2.7593218256e-03    1.0242030469e+05
    2.7864677832e-03    1.0242228906e+05
    2.8136142064e-03    1.0242578125e+05
    2.8407603968e-03    1.0243015625e+05
    2.8679079842e-03    1.0243796875e+05
    2.8950548731e-03    1.0245910156e+05
    2.9222022276e-03    1.0248675000e+05
    2.9493502807e-03    1.0252285156e+05
    2.9764990322e-03    1.0257722656e+05
    3.0036487151e-03    1.0264367969e+05
    3.0307997949e-03    1.0272146875e+05
    3.0579508748e-03    1.0281228125e+05
    3.0851035845e-03    1.0291533594e+05
    3.1122572254e-03    1.0302547656e+05
    3.1394117977e-03    1.0312174219e+05
    3.1665677670e-03    1.0320375000e+05
    3.1937246677e-03    1.0326196094e+05
    3.2208829653e-03    1.0329687500e+05
    3.2480424270e-03    1.0330635156e+05
    3.2752046827e-03    1.0329610156e+05
    3.2952371985e-03    1.0325664844e+05
    3.3145032357e-03    1.0322285156e+05
    3.3336398192e-03    1.0318000781e+05
    3.3528339118e-03    1.0314318750e+05
    3.3720366191e-03    1.0309963281e+05
    3.3912549261e-03    1.0306386719e+05
    3.4104890656e-03    1.0302518750e+05
    3.4297339153e-03    1.0298189844e+05
    3.4486323129e-03    1.0293366406e+05
    3.4671388566e-03    1.0288577344e+05
    3.4854323603e-03    1.0283344531e+05
    3.5036695190e-03    1.0276178906e+05
    3.5219141282e-03    1.0269681250e+05
    3.5401545465e-03    1.0262771094e+05
    3.5583588760e-03    1.0256374219e+05
    3.5765271168e-03    1.0249477344e+05
    3.5946895368e-03    1.0242725000e+05
    3.6139658187e-03    1.0237118750e+05
    3.6330535077e-03    1.0231914844e+05
    3.6521453876e-03    1.0228162500e+05
    3.6699753255e-03    1.0225040625e+05
    3.6875614896e-03    1.0222686719e+05
    3.7050142419e-03    1.0221389844e+05
    3.7224807311e-03    1.0220008594e+05
    3.7400643341e-03    1.0218852344e+05
    3.7577797193e-03    1.0216924219e+05
    3.7755726371e-03    1.0216082031e+05
    3.7933769636e-03    1.0214489844e+05
    3.8111612666e-03    1.0213512500e+05
    3.8289318327e-03    1.0212652344e+05
    3.8467168342e-03    1.0212407031e+05
    3.8645383902e-03    1.0211439844e+05
    3.8824023213e-03    1.0211039844e+05
    3.9002960548e-03    1.0210324219e+05
    3.9182156324e-03    1.0209178906e+05
    3.9361710660e-03    1.0207513281e+05
    3.9541716687e-03    1.0205763281e+05
    3.9733103476e-03    1.0203530469e+05
    3.9924201556e-03    1.0201325000e+05
    4.0104058571e-03    1.0200064844e+05
    4.0284004062e-03    1.0199007031e+05
    4.0464363992e-03    1.0198380469e+05
    4.0656095371e-03    1.0197850000e+05
    4.0847789496e-03    1.0196492969e+05
    4.1039343923e-03    1.0196021875e+05
    4.1219722480e-03    1.0195742969e+05
    4.1400394402e-03    1.0194700000e+05
    4.1591953486e-03    1.0194017969e+05
    4.1784178466e-03    1.0193222656e+05
    4.1976389475e-03    1.0192092969e+05
    4.2168586515e-03    1.0190983594e+05
    4.2360713705e-03    1.0189903906e+05
    4.2552771047e-03    1.0189880469e+05
    4.2744791135e-03    1.0188897656e+05
    4.2936825193e-03    1.0188577344e+05
    4.3128933758e-03    1.0187499219e+05
    4.3321144767e-03    1.0185621094e+05
    4.3513495475e-03    1.0183977344e+05
    4.3705995195e-03    1.0181908594e+05
    4.3898657896e-03    1.0179511719e+05
    4.4091497548e-03    1.0178021094e+05
    4.4284537435e-03    1.0175643750e+05
    4.4477786869e-03    1.0171963281e+05
    4.4671236537e-03    1.0167783594e+05
    4.4864914380e-03    1.0162831250e+05
    4.5058806427e-03    1.0155521094e+05
    4.5252908021e-03    1.0148367969e+05
    4.5447219163e-03    1.0139708594e+05
    4.5641721226e-03    1.0131032031e+05
    4.5836409554e-03    1.0121660156e+05
    4.6031279489e-03    1.0111111719e+05
    4.6226321720e-03    1.0099497656e+05
    4.6421540901e-03    1.0086590625e+05
    4.6616927721e-03    1.0073752344e+05
    4.6812482178e-03    1.0061221875e+05
    4.7008208930e-03    1.0049413281e+05
    4.7204112634e-03    1.0039113281e+05
    4.7400193289e-03    1.0030806250e+05
    4.7596455552e-03    1.0023467969e+05
    4.7792894766e-03    1.0018577344e+05
    4.7989510931e-03    1.0015572656e+05
    4.8186304048e-03    1.0014290625e+05
    4.8383255489e-03    1.0015442969e+05
    4.8580355942e-03    1.0018100000e+05
    4.8777610064e-03    1.0023015625e+05
    4.8975008540e-03    1.0028792969e+05
    4.9172551371e-03    1.0035082031e+05
    4.9370229244e-03    1.0041097656e+05
    4.9568060786e-03    1.0046802344e+05
    4.9766036682e-03    1.0052905469e+05
    4.9964170903e-03    1.0057861719e+05
    5.0162458792e-03    1.0061952344e+05
    5.0360900350e-03    1.0064989844e+05
    5.0559476949e-03    1.0066437500e+05
    5.0758207217e-03    1.0067803906e+05
    5.0957072526e-03    1.0067552344e+05
    5.1156077534e-03    1.0067608594e+05
    5.1355226897e-03    1.0066289844e+05
    5.1554525271e-03    1.0065272656e+05
    5.1753963344e-03    1.0063457031e+05
    5.1953555085e-03    1.0061500781e+05
    5.2153295837e-03    1.0059716406e+05
    5.2353194915e-03    1.0058160156e+05
    5.2553247660e-03    1.0057672656e+05
    5.2753463387e-03    1.0057291406e+05
    5.2953832783e-03    1.0057711719e+05
    5.3154369816e-03    1.0058062500e+05
    5.3355065174e-03    1.0058580469e+05
    5.3555918857e-03    1.0059121094e+05
    5.3756926209e-03    1.0059878906e+05
    5.3958082572e-03    1.0061297656e+05
    5.4159392603e-03    1.0062556250e+05
    5.4360851645e-03    1.0063689844e+05
    5.4562464356e-03    1.0064564844e+05
    5.4764230736e-03    1.0065593750e+05
    5.4966160096e-03    1.0066385156e+05
    5.5168238468e-03    1.0066752344e+05
    5.5370470509e-03    1.0067216406e+05
    5.5572865531e-03    1.0067493750e+05
    5.5775423534e-03    1.0067250000e+05
    5.5978130549e-03    1.0066847656e+05
    5.6181000546e-03    1.0067000781e+05
    5.6384028867e-03    1.0067169531e+05
    5.6587206200e-03    1.0067372656e+05
    5.6790532544e-03    1.0067966406e+05
    5.6994007900e-03    1.0068727344e+05
    5.7197632268e-03    1.0068332031e+05
    5.7401410304e-03    1.0068628906e+05
    5.7605337352e-03    1.0068962500e+05
    5.7809422724e-03    1.0068937500e+05
    5.8013652451e-03    1.0069581250e+05
    5.8218040504e-03    1.0069885156e+05
    5.8422577567e-03    1.0070139844e+05
    5.8627268299e-03    1.0070546094e+05
    5.8832112700e-03    1.0071653125e+05
    5.9037101455e-03    1.0072303125e+05
    5.9242248535e-03    1.0072685156e+05
    5.9447535314e-03    1.0073122656e+05
    5.9641525149e-03    1.0073664844e+05
    5.9830932878e-03    1.0074018750e+05
    6.0020405799e-03    1.0074482031e+05
    6.0210367665e-03    1.0074922656e+05
    6.0400799848e-03    1.0076091406e+05
    6.0591096990e-03    1.0076728906e+05
    6.0781282373e-03    1.0077275000e+05
    6.0972142965e-03    1.0077821094e+05
    6.1162756756e-03    1.0078474219e+05
    6.1353649944e-03    1.0079235156e+05
    6.1544459313e-03    1.0080008594e+05
    6.1734300107e-03    1.0080918750e+05
    6.1924448237e-03    1.0082444531e+05
    6.2115197070e-03    1.0083696094e+05
    6.2306127511e-03    1.0086241406e+05
    6.2497169711e-03    1.0090825781e+05
    6.2688281760e-03    1.0099672656e+05
    6.2879407778e-03    1.0118110156e+05
    6.3070552424e-03    1.0155900781e+05
    6.3261794858e-03    1.0234400000e+05
    6.3453060575e-03    1.0389816406e+05
    6.3644465990e-03    1.0679028906e+05
    6.3835908659e-03    1.1169846875e+05
    6.4027444459e-03    1.1912716406e+05
    6.4219115302e-03    1.2898930469e+05
    6.4410855994e-03    1.4032750000e+05
    6.4602680504e-03    1.5142479688e+05
    6.4794607460e-03    1.6053048438e+05
    6.4986641519e-03    1.6658079688e+05
    6.5178787336e-03    1.6952167188e+05
    6.5371058881e-03    1.7002318750e+05
    6.5563363023e-03    1.6905551562e+05
    6.5755699761e-03    1.6744642188e+05
    6.5948092379e-03    1.6584354688e+05
    6.6140629351e-03    1.6446689062e+05
    6.6333152354e-03    1.6326900000e+05
    6.6525745206e-03    1.6208593750e+05
    6.6718445159e-03    1.6077256250e+05
    6.6911154427e-03    1.5926467188e+05
    6.7104012705e-03    1.5756293750e+05
    6.7296870984e-03    1.5573359375e+05
    6.7489854991e-03    1.5386920312e+05
    6.7682852969e-03    1.5203629688e+05
    6.7875892855e-03    1.5029364062e+05
    6.8069072440e-03    1.4864985938e+05
    6.8262196146e-03    1.4708571875e+05
    6.8455408327e-03    1.4559792188e+05
    6.8648783490e-03    1.4413493750e+05
    6.8842126057e-03    1.4270468750e+05
    6.9035501219e-03    1.4130779688e+05
    6.9228983484e-03    1.3995131250e+05
    6.9422605447e-03    1.3865500000e+05
    6.9616222754e-03    1.3742846875e+05
    6.9809844717e-03    1.3627871875e+05
    7.0003494620e-03    1.3520256250e+05
    7.0197195746e-03    1.3420345312e+05
    7.0390999317e-03    1.3326404688e+05
    7.0584909990e-03    1.3238157812e+05
    7.0778946392e-03    1.3154098438e+05
    7.0973108523e-03    1.3074172656e+05
    7.1167377755e-03    1.2997081250e+05
    7.1361698210e-03    1.2924217969e+05
    7.1556069888e-03    1.2854622656e+05
    7.1750483476e-03    1.2788746094e+05
    7.1944966912e-03    1.2725764844e+05
    7.2139529511e-03    1.2665499219e+05
    7.2334166616e-03    1.2608514844e+05
    7.2528840974e-03    1.2552733594e+05
    7.2723543271e-03    1.2498685156e+05
    7.2918278165e-03    1.2446922656e+05
    7.3113050312e-03    1.2396564844e+05
    7.3307845742e-03    1.2348878125e+05
    7.3502692394e-03    1.2303163281e+05
    7.3697618209e-03    1.2260155469e+05
    7.3892641813e-03    1.2219455469e+05
    7.4087800458e-03    1.2181591406e+05
    7.4282912537e-03    1.2145797656e+05
    7.4477996677e-03    1.2112218750e+05
    7.4673094787e-03    1.2080264844e+05
    7.4868267402e-03    1.2050246094e+05
    7.5063589029e-03    1.2021539844e+05
    7.5258887373e-03    1.1994062500e+05
    7.5454111211e-03    1.1967018750e+05
    7.5649353676e-03    1.1941811719e+05
    7.5844703242e-03    1.1917978906e+05
    7.6040057465e-03    1.1895333594e+05
    7.6235276647e-03    1.1873759375e+05
    7.6430505142e-03    1.1853600781e+05
    7.6625877991e-03    1.1834814844e+05
    7.6821087860e-03    1.1816933594e+05
    7.7016241848e-03    1.1800074219e+05
    7.7211544849e-03    1.1784096875e+05
    7.7406810597e-03    1.1769743750e+05
    7.7602043748e-03    1.1755852344e+05
    7.7797495760e-03    1.1743092969e+05
    7.7992938459e-03    1.1731014844e+05
    7.8188432381e-03    1.1719260156e+05
    7.8384252265e-03    1.1707889844e+05
    7.8580006957e-03    1.1696394531e+05
    7.8775910661e-03    1.1684328125e+05
    7.8972103074e-03    1.1671582031e+05
    7.9168286175e-03    1.1658067969e+05
    7.9364804551e-03    1.1643996094e+05
    7.9561360180e-03    1.1629222656e+05
    7.9758102074e-03    1.1613952344e+05
    7.9955114052e-03    1.1597678125e+05
    8.0152126029e-03    1.1582233594e+05
    8.0349491909e-03    1.1566761719e+05
    8.0546662211e-03    1.1550891406e+05
    8.0743944272e-03    1.1535678125e+05
    8.0941170454e-03    1.1520982031e+05
    8.1138620153e-03    1.1506578906e+05
    8.1336386502e-03    1.1492378906e+05
    8.1534720957e-03    1.1479153906e+05
    8.1733558327e-03    1.1466177344e+05
    8.1932730973e-03    1.1454171094e+05
    8.2132071257e-03    1.1442514844e+05
    8.2330890000e-03    1.1431336719e+05
    8.2529615611e-03    1.1420567969e+05
    8.2727763802e-03    1.1409641406e+05
    8.2926023751e-03    1.1398869531e+05
    8.3124246448e-03    1.1387821094e+05
    8.3322748542e-03    1.1378496094e+05
    8.3521194756e-03    1.1369166406e+05
    8.3719678223e-03    1.1360178125e+05
    8.3917891607e-03    1.1352084375e+05
    8.4116021171e-03    1.1344866406e+05
    8.4314141423e-03    1.1338478125e+05
    8.4512168542e-03    1.1332246094e+05
    8.4710381925e-03    1.1327397656e+05
    8.4908353165e-03    1.1323677344e+05
    8.5106678307e-03    1.1320337500e+05
    8.5304882377e-03    1.1317716406e+05
    8.5503393784e-03    1.1314381250e+05
    8.5699046031e-03    1.1310935156e+05
    8.5892248899e-03    1.1306667969e+05
    8.6083402857e-03    1.1302224219e+05
    8.6272666231e-03    1.1296346875e+05
    8.6460309103e-03    1.1289362500e+05
    8.6646731943e-03    1.1280931250e+05
    8.6832325906e-03    1.1270808594e+05
    8.7017398328e-03    1.1259437500e+05
    8.7202098221e-03    1.1246391406e+05
    8.7386453524e-03    1.1231446094e+05
    8.7570473552e-03    1.1215099219e+05
    8.7753897533e-03    1.1197600781e+05
    8.7936492637e-03    1.1179533594e+05
    8.8118780404e-03    1.1161502344e+05
    8.8300397620e-03    1.1143621094e+05
    8.8481390849e-03    1.1125677344e+05
    8.8662039489e-03    1.1108706250e+05
    8.8842641562e-03    1.1092541406e+05
    8.9023411274e-03    1.1077278125e+05
    8.9204348624e-03    1.1062977344e+05
    8.9385388419e-03    1.1049358594e+05
    8.9566456154e-03    1.1036941406e+05
    8.9747514576e-03    1.1026416406e+05
    8.9928600937e-03    1.1017114844e+05
    9.0109808370e-03    1.1009562500e+05
    9.0291155502e-03    1.1002872656e+05
    9.0472688898e-03    1.0997506250e+05
    9.0654399246e-03    1.0992950781e+05
    9.0836230665e-03    1.0988875781e+05
    9.1018192470e-03    1.0985008594e+05
    9.1200266033e-03    1.0981572656e+05
    9.1382460669e-03    1.0978058594e+05
    9.1564757749e-03    1.0974418750e+05
    9.1747231781e-03    1.0970625000e+05
    9.1929892078e-03    1.0967031250e+05
    9.2112747952e-03    1.0963174219e+05
    9.2295790091e-03    1.0959939844e+05
    9.2479009181e-03    1.0957141406e+05
    9.2662386596e-03    1.0954421875e+05
    9.2845931649e-03    1.0951841406e+05
    9.3029672280e-03    1.0949578906e+05
    9.3213599175e-03    1.0947427344e+05
    9.3397712335e-03    1.0945453906e+05
    9.3582011759e-03    1.0943625781e+05
    9.3766497448e-03    1.0941408594e+05
    9.3951150775e-03    1.0939696094e+05
    9.4135999680e-03    1.0937534375e+05
    9.4321016222e-03    1.0934758594e+05
    9.4506228343e-03    1.0931721875e+05
    9.4691645354e-03    1.0927718750e+05
    9.4877239317e-03    1.0923341406e+05
    9.5063010231e-03    1.0918252344e+05
    9.5248948783e-03    1.0912733594e+05
    9.5435054973e-03    1.0906407031e+05
    9.5621328801e-03    1.0899997656e+05
    9.5807760954e-03    1.0893225781e+05
    9.5994332805e-03    1.0886078906e+05
    9.6181081608e-03    1.0878296094e+05
    9.6367979422e-03    1.0870785156e+05
    9.6555035561e-03    1.0863203906e+05
    9.6742231399e-03    1.0855760156e+05
    9.6929576248e-03    1.0849677344e+05
    9.7117051482e-03    1.0843672656e+05
    9.7304685041e-03    1.0837855469e+05
    9.7492448986e-03    1.0832925000e+05
    9.7680361941e-03    1.0828308594e+05
    9.7868405282e-03    1.0824150781e+05
    9.8056588322e-03    1.0820530469e+05
    9.8244920373e-03    1.0817564844e+05
    9.8433364183e-03    1.0815243750e+05
    9.8621929064e-03    1.0812616406e+05
    9.8810633644e-03    1.0810602344e+05
    9.8999459296e-03    1.0808931250e+05
    9.9188406020e-03    1.0806472656e+05
    9.9377483130e-03    1.0804057031e+05
    9.9566690624e-03    1.0801753906e+05
    9.9756028503e-03    1.0799775781e+05
    9.9945487455e-03    1.0795982031e+05
    1.0013507679e-02    1.0792871094e+05
    1.0032479651e-02    1.0787884375e+05
    1.0051463731e-02    1.0782110156e+05
    1.0070459917e-02    1.0775160156e+05
    1.0089469142e-02    1.0767577344e+05
    1.0108492337e-02    1.0759521094e+05
    1.0127528571e-02    1.0750485156e+05
    1.0146577843e-02    1.0741524219e+05
    1.0165639222e-02    1.0733171875e+05
    1.0184712708e-02    1.0724125000e+05
    1.0203798302e-02    1.0715253906e+05
    1.0222896002e-02    1.0706552344e+05
    1.0242006741e-02    1.0698043750e+05
    1.0261129588e-02    1.0690453906e+05
    1.0280264542e-02    1.0683439844e+05
    1.0299413465e-02    1.0676584375e+05
    1.0318575427e-02    1.0670225781e+05
    1.0337748565e-02    1.0663533594e+05
    1.0356934741e-02    1.0657289844e+05
    1.0376133956e-02    1.0651118750e+05
    1.0395346209e-02    1.0644896094e+05
    1.0414571501e-02    1.0639180469e+05
    1.0433809832e-02    1.0632972656e+05
    1.0453061201e-02    1.0626392969e+05
    1.0472324677e-02    1.0619128906e+05
    1.0491601191e-02    1.0611475000e+05
    1.0510892607e-02    1.0603035156e+05
    1.0530196130e-02    1.0593817969e+05
    1.0549513623e-02    1.0584557031e+05
    1.0568842292e-02    1.0573864844e+05
    1.0588183999e-02    1.0563644531e+05
    1.0607538745e-02    1.0552625781e+05
    1.0626907460e-02    1.0541771094e+05
    1.0646289214e-02    1.0530656250e+05
    1.0665684007e-02    1.0519743750e+05
    1.0685092770e-02    1.0508564844e+05
    1.0704516433e-02    1.0498113281e+05
    1.0723951273e-02    1.0488143750e+05
    1.0743400082e-02    1.0479222656e+05
    1.0762862861e-02    1.0471493750e+05
    1.0782338679e-02    1.0464467969e+05
    1.0801829398e-02    1.0458588281e+05
    1.0821334086e-02    1.0454088281e+05
    1.0840852745e-02    1.0450500000e+05
    1.0860386305e-02    1.0447721875e+05
    1.0879932903e-02    1.0445385156e+05
    1.0899493471e-02    1.0443877344e+05
    1.0919069871e-02    1.0442249219e+05
    1.0938662104e-02    1.0440191406e+05
    1.0958270170e-02    1.0438014844e+05
    1.0977892205e-02    1.0435696875e+05
    1.0997531936e-02    1.0432058594e+05
    1.1017187499e-02    1.0427368750e+05
    1.1036860757e-02    1.0422205469e+05
    1.1056551710e-02    1.0416985156e+05
    1.1076259427e-02    1.0411378906e+05
    1.1095987633e-02    1.0405866406e+05
    1.1115733534e-02    1.0399999219e+05
    1.1135498993e-02    1.0394227344e+05
    1.1155283079e-02    1.0389494531e+05
    1.1175086722e-02    1.0385614844e+05
    1.1194912717e-02    1.0381853125e+05
    1.1214758269e-02    1.0378452344e+05
    1.1234625243e-02    1.0374492969e+05
    1.1254511774e-02    1.0371583594e+05
    1.1274418794e-02    1.0368212500e+05
    1.1294347234e-02    1.0364441406e+05
    1.1314296164e-02    1.0360853906e+05
    1.1334266514e-02    1.0357112500e+05
    1.1354257353e-02    1.0352737500e+05
    1.1374268681e-02    1.0348675781e+05
    1.1394302361e-02    1.0343825781e+05
    1.1414355598e-02    1.0339122656e+05
    1.1434430256e-02    1.0334203906e+05
    1.1454525404e-02    1.0328728906e+05
    1.1474640109e-02    1.0324341406e+05
    1.1494777165e-02    1.0319403125e+05
    1.1514934711e-02    1.0314969531e+05
    1.1535113677e-02    1.0310903906e+05
    1.1555313133e-02    1.0306352344e+05
    1.1575534008e-02    1.0301992969e+05
    1.1595774442e-02    1.0297121875e+05
    1.1616035365e-02    1.0291846094e+05
    1.1636316776e-02    1.0287352344e+05
    1.1656619608e-02    1.0282333594e+05
    1.1676942930e-02    1.0277687500e+05
    1.1697287671e-02    1.0272835156e+05
    1.1717652902e-02    1.0267984375e+05
    1.1738038622e-02    1.0262299219e+05
    1.1758443899e-02    1.0257155469e+05
    1.1778870597e-02    1.0252092969e+05
    1.1799318716e-02    1.0246753906e+05
    1.1819788255e-02    1.0240758594e+05
    1.1840280145e-02    1.0235302344e+05
    1.1860790662e-02    1.0230057031e+05
    1.1881321669e-02    1.0224912500e+05
    1.1901874095e-02    1.0220222656e+05
    1.1922447011e-02    1.0216318750e+05
    1.1943042278e-02    1.0213818750e+05
    1.1963658035e-02    1.0211559375e+05
    1.1984295212e-02    1.0212003125e+05
    1.2004952878e-02    1.0215287500e+05
    1.2025631964e-02    1.0223032031e+05
    1.2046331540e-02    1.0237400000e+05
    1.2067052536e-02    1.0259934375e+05
    1.2087795883e-02    1.0292521094e+05
    1.2108558789e-02    1.0337744531e+05
    1.2129344046e-02    1.0396297656e+05
    1.2150149792e-02    1.0471088281e+05
    1.2170976959e-02    1.0560527344e+05
    1.2191825546e-02    1.0662766406e+05
    1.2212695554e-02    1.0771871875e+05
    1.2233586982e-02    1.0881513281e+05
    1.2254500762e-02    1.0982503906e+05
    1.2275436893e-02    1.1067297656e+05
    1.2296394445e-02    1.1128878906e+05
    1.2317374349e-02    1.1164408594e+05
    1.2338375673e-02    1.1172792969e+05
    1.2359398417e-02    1.1155581250e+05
    1.2380442582e-02    1.1115460156e+05
    1.2401508167e-02    1.1059081250e+05
    1.2422595173e-02    1.0991471875e+05
    1.2443703599e-02    1.0919271094e+05
    1.2464834377e-02    1.0847400000e+05
    1.2485986575e-02    1.0782185156e+05
    1.2507158332e-02    1.0726196094e+05
    1.2528351508e-02    1.0681689844e+05
    1.2549565174e-02    1.0647360156e+05
    1.2570801191e-02    1.0620650781e+05
    1.2592058629e-02    1.0597675000e+05
    1.2613337487e-02    1.0574484375e+05
    1.2634636834e-02    1.0547797656e+05
    1.2655957602e-02    1.0515584375e+05
    1.2677297927e-02    1.0477677344e+05
    1.2698660605e-02    1.0433982031e+05
    1.2720043771e-02    1.0386955469e+05
    1.2741449289e-02    1.0337206250e+05
    1.2762876227e-02    1.0287771094e+05
    1.2784325518e-02    1.0240725781e+05
    1.2805794366e-02    1.0197981250e+05
    1.2827285565e-02    1.0161261719e+05
    1.2848797254e-02    1.0131180469e+05
    1.2870330364e-02    1.0106864844e+05
    1.2891885825e-02    1.0087746875e+05
    1.2913462706e-02    1.0071959375e+05
    1.2935061008e-02    1.0058875000e+05
    1.2956679799e-02    1.0047246094e+05
    1.2978320010e-02    1.0037578125e+05
    1.2999981642e-02    1.0029085156e+05
    1.3021663763e-02    1.0022633594e+05
    1.3043368235e-02    1.0016733594e+05
    1.3065092266e-02    1.0012596875e+05
    1.3086837716e-02    1.0009896875e+05
    1.3108605519e-02    1.0009312500e+05
    1.3130392879e-02    1.0010734375e+05
    1.3152201660e-02    1.0013418750e+05
    1.3174032792e-02    1.0016591406e+05
    1.3195885345e-02    1.0019453906e+05
    1.3217759319e-02    1.0022000781e+05
    1.3239653781e-02    1.0023353125e+05
    1.3261569664e-02    1.0022703906e+05
    1.3283506967e-02    1.0020397656e+05
    1.3305463828e-02    1.0017327344e+05
    1.3327440247e-02    1.0012128125e+05
    1.3349435292e-02    1.0007199219e+05
    1.3371448033e-02    1.0002903906e+05
    1.3393475674e-02    1.0000363281e+05
    1.3415516354e-02    1.0000334375e+05
    1.3437564485e-02    1.0003815625e+05
    1.3459613547e-02    1.0010660156e+05
    1.3481658883e-02    1.0018610156e+05
    1.3503690250e-02    1.0027884375e+05
    1.3525702059e-02    1.0037802344e+05
    1.3547683135e-02    1.0046246094e+05
    1.3569628820e-02    1.0053218750e+05
    1.3591531664e-02    1.0057822656e+05
    1.3613392599e-02    1.0060614844e+05
    1.3635210693e-02    1.0061409375e+05
    1.3656994328e-02    1.0061666406e+05
    1.3678749092e-02    1.0060738281e+05
    1.3700488023e-02    1.0060511719e+05
    1.3722228818e-02    1.0061397656e+05
    1.3743981719e-02    1.0063164844e+05
    1.3765762560e-02    1.0065489844e+05
    1.3787578791e-02    1.0068500000e+05
    1.3809437864e-02    1.0072303906e+05
    1.3831341639e-02    1.0076137500e+05
    1.3853288256e-02    1.0079389844e+05
    1.3875273056e-02    1.0081677344e+05
    1.3897285797e-02    1.0083672656e+05
    1.3919321820e-02    1.0084865625e+05
    1.3941374607e-02    1.0085728906e+05
    1.3963440433e-02    1.0085781250e+05
    1.3985517435e-02    1.0085737500e+05
    1.4007603750e-02    1.0085593750e+05
    1.4029704034e-02    1.0085849219e+05
    1.4051820152e-02    1.0086214844e+05
    1.4073957689e-02    1.0086816406e+05
    1.4096121304e-02    1.0087058594e+05
    1.4118315652e-02    1.0088366406e+05
    1.4140545391e-02    1.0088508594e+05
    1.4162814245e-02    1.0089156250e+05
    1.4185124077e-02    1.0088760156e+05
    1.4207473956e-02    1.0088828125e+05
    1.4229862019e-02    1.0087875781e+05
    1.4252286404e-02    1.0087193750e+05
    1.4274741523e-02    1.0086072656e+05
    1.4297228307e-02    1.0084733594e+05
    1.4319745824e-02    1.0083175000e+05
    1.4342290349e-02    1.0081602344e+05
    1.4364863746e-02    1.0079857031e+05
    1.4387467876e-02    1.0078160156e+05
    1.4410103671e-02    1.0076158594e+05
    1.4432771131e-02    1.0074428906e+05
    1.4455472119e-02    1.0073103906e+05
    1.4478209428e-02    1.0071667969e+05
    1.4500979334e-02    1.0069468750e+05
    1.4523783699e-02    1.0067438281e+05
    1.4546621591e-02    1.0064793750e+05
    1.4569494873e-02    1.0061982031e+05
    1.4592399821e-02    1.0059065625e+05
    1.4615339227e-02    1.0056966406e+05
    1.4638305642e-02    1.0054400000e+05
    1.4661304653e-02    1.0051462500e+05
    1.4684336260e-02    1.0048827344e+05
    1.4707398601e-02    1.0045696094e+05
    1.4730494469e-02    1.0042921875e+05
    1.4753622934e-02    1.0039844531e+05
    1.4776783995e-02    1.0036775000e+05
    1.4799979515e-02    1.0034275000e+05
    1.4823205769e-02    1.0031238281e+05
    1.4846466482e-02    1.0028347656e+05
    1.4869757928e-02    1.0025349219e+05
    1.4893081971e-02    1.0021887500e+05
    1.4916437678e-02    1.0019297656e+05
    1.4939822257e-02    1.0016668750e+05
    1.4963239431e-02    1.0014009375e+05
    1.4986685477e-02    1.0010903125e+05
    1.5010161325e-02    1.0007422656e+05
    1.5033668838e-02    1.0004085156e+05
    1.5057205223e-02    1.0000758594e+05
    1.5080772340e-02    9.9976843750e+04
    1.5104367398e-02    9.9943445312e+04
    1.5127992257e-02    9.9909023438e+04
    1.5151646920e-02    9.9871210938e+04
    1.5175330453e-02    9.9822414062e+04
    1.5199041925e-02    9.9778804688e+04
    1.5222782269e-02    9.9731023438e+04
    1.5246548690e-02    9.9685929688e+04
    1.5270343982e-02    9.9639960938e+04
    1.5294168144e-02    9.9597773438e+04
    1.5318016522e-02    9.9551835938e+04
    1.5341891907e-02    9.9505773438e+04
    1.5365792438e-02    9.9469554688e+04
    1.5389721841e-02    9.9441781250e+04
    1.5413676389e-02    9.9425914062e+04
    1.5437657945e-02    9.9426289062e+04
    1.5461664647e-02    9.9429937500e+04
    1.5485695563e-02    9.9441460938e+04
    1.5509752557e-02    9.9464320312e+04
    1.5533835627e-02    9.9497054688e+04
    1.5557944775e-02    9.9541320312e+04
    1.5582079068e-02    9.9595335938e+04
    1.5606240369e-02    9.9660000000e+04
    1.5630424023e-02    9.9716054688e+04
    1.5654634684e-02    9.9782226562e+04
    1.5678871423e-02    9.9849601562e+04
    1.5703132376e-02    9.9915710938e+04
    1.5727419406e-02    9.9979437500e+04
    1.5751728788e-02    1.0003546094e+05
    1.5776060522e-02    1.0008382031e+05
    1.5800418332e-02    1.0012947656e+05
    1.5824800357e-02    1.0017922656e+05
    1.5849204734e-02    1.0023165625e+05
    1.5873633325e-02    1.0027894531e+05
    1.5898084268e-02    1.0032925781e+05
    1.5922557563e-02    1.0038153906e+05
    1.5947058797e-02    1.0044458594e+05
    1.5971582383e-02    1.0050817969e+05
    1.5996130183e-02    1.0057710156e+05
    1.6020702198e-02    1.0065049219e+05
    1.6045298427e-02    1.0071937500e+05
    1.6069920734e-02    1.0078311719e+05
    1.6094569117e-02    1.0084028906e+05
    1.6119243577e-02    1.0089356250e+05
    1.6143942252e-02    1.0093440625e+05
    1.6168667004e-02    1.0096903906e+05
    1.6193419695e-02    1.0099028125e+05
    1.6218200326e-02    1.0100405469e+05
    1.6243007034e-02    1.0100985156e+05
    1.6267839819e-02    1.0100958594e+05
    1.6292702407e-02    1.0100010156e+05
    1.6317596659e-02    1.0099458594e+05
    1.6342513263e-02    1.0098562500e+05
    1.6367461532e-02    1.0098278125e+05
    1.6392435879e-02    1.0098422656e+05
    1.6417443752e-02    1.0099609375e+05
    1.6442479566e-02    1.0101283594e+05
    1.6467543319e-02    1.0103430469e+05
    1.6492636874e-02    1.0106312500e+05
    1.6517756507e-02    1.0111142969e+05
    1.6542907804e-02    1.0115821094e+05
    1.6568088904e-02    1.0121849219e+05
    1.6593271866e-02    1.0128653906e+05
    1.6618426889e-02    1.0135514844e+05
    1.6643559560e-02    1.0143107031e+05
    1.6668669879e-02    1.0151213281e+05
    1.6693757847e-02    1.0158721094e+05
    1.6718825325e-02    1.0167291406e+05
    1.6743874177e-02    1.0174619531e+05
    1.6768900678e-02    1.0182453906e+05
    1.6793908551e-02    1.0190885156e+05
    1.6818899661e-02    1.0198235156e+05
    1.6843874007e-02    1.0204791406e+05
    1.6868829727e-02    1.0212005469e+05
    1.6893770546e-02    1.0218580469e+05
    1.6918692738e-02    1.0224800000e+05
    1.6943598166e-02    1.0230764844e+05
    1.6968490556e-02    1.0235928906e+05
    1.6993366182e-02    1.0239764844e+05
    1.7018226907e-02    1.0243268750e+05
    1.7043072730e-02    1.0246517969e+05
    1.7067901790e-02    1.0248272656e+05
    1.7092714086e-02    1.0249649219e+05
    1.7117511481e-02    1.0250541406e+05
    1.7142292112e-02    1.0250028906e+05
    1.7167057842e-02    1.0249239844e+05
    1.7191808671e-02    1.0247328906e+05
    1.7216544598e-02    1.0245267969e+05
    1.7241263762e-02    1.0242791406e+05
    1.7265968025e-02    1.0239493750e+05
    1.7290659249e-02    1.0236261719e+05
    1.7315333709e-02    1.0233080469e+05
    1.7339993268e-02    1.0229703125e+05
    1.7364639789e-02    1.0225841406e+05
    1.7389267683e-02    1.0223603125e+05
    1.7413880676e-02    1.0220991406e+05
    1.7438478768e-02    1.0218318750e+05
    1.7463061959e-02    1.0216155469e+05
    1.7487626523e-02    1.0213940625e+05
    1.7512176186e-02    1.0211680469e+05
    1.7536709085e-02    1.0210216406e+05
    1.7561223358e-02    1.0208397656e+05
    1.7585720867e-02    1.0206890625e+05
    1.7610201612e-02    1.0205578906e+05
    1.7634663731e-02    1.0204186719e+05
    1.7659107223e-02    1.0202665625e+05
    1.7683532089e-02    1.0201471875e+05
    1.7707940191e-02    1.0199447656e+05
    1.7732329667e-02    1.0197871875e+05
    1.7756698653e-02    1.0196650000e+05
    1.7781050876e-02    1.0196010156e+05
    1.7805384472e-02    1.0194621094e+05
    1.7829699442e-02    1.0193414844e+05
    1.7853999510e-02    1.0192739844e+05
    1.7878280953e-02    1.0193669531e+05
    1.7902545631e-02    1.0196152344e+05
    1.7926793545e-02    1.0200035156e+05
    1.7951028422e-02    1.0204556250e+05
    1.7975246534e-02    1.0211296875e+05
    1.7999447882e-02    1.0219260156e+05
    1.8023636192e-02    1.0229291406e+05
    1.8047811463e-02    1.0242321094e+05
    1.8071975559e-02    1.0255739844e+05
    1.8096126616e-02    1.0270381250e+05
    1.8120266497e-02    1.0285052344e+05
    1.8144397065e-02    1.0298775781e+05
    1.8168520182e-02    1.0311202344e+05
    1.8192630261e-02    1.0321286719e+05
    1.8216732889e-02    1.0328732031e+05
    1.8240824342e-02    1.0332422656e+05
    1.8264908344e-02    1.0332814844e+05
    1.8288983032e-02    1.0328288281e+05
    1.8313048407e-02    1.0320022656e+05
    1.8337102607e-02    1.0307797656e+05
    1.8361147493e-02    1.0291134375e+05
    1.8385183066e-02    1.0270200781e+05
    1.8409207463e-02    1.0247021875e+05
    1.8433224410e-02    1.0221905469e+05
    1.8457230181e-02    1.0196753125e+05
    1.8481226638e-02    1.0171785156e+05
    1.8505210057e-02    1.0148002344e+05
    1.8529184163e-02    1.0126414844e+05
    1.8553148955e-02    1.0107910156e+05
    1.8577100709e-02    1.0093044531e+05
    1.8601041287e-02    1.0081497656e+05
    1.8624972552e-02    1.0072197656e+05
    1.8648892641e-02    1.0065946875e+05
    1.8672801554e-02    1.0062246875e+05
    1.8696699291e-02    1.0060271094e+05
    1.8720587716e-02    1.0059478906e+05
    1.8744463101e-02    1.0061160156e+05
    1.8768329173e-02    1.0063200000e+05
    1.8792184070e-02    1.0066953906e+05
    1.8816027790e-02    1.0071422656e+05
    1.8839860335e-02    1.0076178125e+05
    1.8863683566e-02    1.0082274219e+05
    1.8887493759e-02    1.0089271094e+05
    1.8911294639e-02    1.0096490625e+05
    1.8935086206e-02    1.0103315625e+05
    1.8958866596e-02    1.0109778125e+05
    1.8982635811e-02    1.0116407031e+05
    1.9006397575e-02    1.0122203906e+05
    1.9030146301e-02    1.0127936719e+05
    1.9053885713e-02    1.0132678906e+05
    1.9077615812e-02    1.0137741406e+05
    1.9101334736e-02    1.0142103125e+05
    1.9125042483e-02    1.0147228906e+05
    1.9148740917e-02    1.0151544531e+05
    1.9172428176e-02    1.0156046875e+05
    1.9196104258e-02    1.0161631250e+05
    1.9219771028e-02    1.0167456250e+05
    1.9243424758e-02    1.0173643750e+05
    1.9267069176e-02    1.0180366406e+05
    1.9290700555e-02    1.0187035156e+05
    1.9314322621e-02    1.0193357031e+05
    1.9337931648e-02    1.0199346094e+05
    1.9361529499e-02    1.0205293750e+05
    1.9385114312e-02    1.0210277344e+05
    1.9408687949e-02    1.0215244531e+05
    1.9432250410e-02    1.0220078906e+05
    1.9455801696e-02    1.0223839844e+05
    1.9479339942e-02    1.0227516406e+05
    1.9502865151e-02    1.0230068750e+05
    1.9526379183e-02    1.0233036719e+05
    1.9549878314e-02    1.0235399219e+05
    1.9573366269e-02    1.0238131250e+05
    1.9596841186e-02    1.0240147656e+05
    1.9620303065e-02    1.0241947656e+05
    1.9643751904e-02    1.0242977344e+05
    1.9667187706e-02    1.0242975781e+05
    1.9690606743e-02    1.0243696094e+05
    1.9714014605e-02    1.0244161719e+05
    1.9737409428e-02    1.0244202344e+05
    1.9760791212e-02    1.0243928906e+05
    1.9784159958e-02    1.0243447656e+05
    1.9807513803e-02    1.0242400000e+05
    1.9830854610e-02    1.0241130469e+05
    1.9854182377e-02    1.0240439844e+05
    1.9877497107e-02    1.0239200000e+05
    1.9900798798e-02    1.0237766406e+05
    1.9924087450e-02    1.0237091406e+05
    1.9947361201e-02    1.0235334375e+05
    1.9970623776e-02    1.0234427344e+05
    1.9993871450e-02    1.0233337500e+05
    2.0017107949e-02    1.0231133594e+05
    2.0040329546e-02    1.0229789844e+05
    2.0063538104e-02    1.0228475781e+05
    2.0086731762e-02    1.0226953906e+05
    2.0109914243e-02    1.0225810156e+05
    2.0133081824e-02    1.0224543750e+05
    2.0156236365e-02    1.0222927344e+05
    2.0179376006e-02    1.0221091406e+05
    2.0202504471e-02    1.0220285156e+05
    2.0225618035e-02    1.0218775781e+05
    2.0248720422e-02    1.0217589844e+05
    2.0271807909e-02    1.0216627344e+05
    2.0294882357e-02    1.0215768750e+05
    2.0317947492e-02    1.0213977344e+05
    2.0340997726e-02    1.0213097656e+05
    2.0364036784e-02    1.0212296094e+05
    2.0387060940e-02    1.0212397656e+05
    2.0410073921e-02    1.0211440625e+05
    2.0433073863e-02    1.0210169531e+05
    2.0456060767e-02    1.0208784375e+05
    2.0479036495e-02    1.0207847656e+05
    2.0501999184e-02    1.0206862500e+05
    2.0524948835e-02    1.0206380469e+05
    2.0547885448e-02    1.0205806250e+05
    2.0570809022e-02    1.0204890625e+05
    2.0593719557e-02    1.0203971875e+05
    2.0616617054e-02    1.0202428125e+05
    2.0639499649e-02    1.0201178125e+05
    2.0662369207e-02    1.0200150000e+05
    2.0685223863e-02    1.0199132031e+05
    2.0708063617e-02    1.0199083594e+05
    2.0730890334e-02    1.0198046875e+05
    2.0753700286e-02    1.0197262500e+05
    2.0776495337e-02    1.0196463281e+05
    2.0799275488e-02    1.0195533594e+05
    2.0822042599e-02    1.0194721094e+05
    2.0844791085e-02    1.0193816406e+05
    2.0867524669e-02    1.0192994531e+05
    2.0890241489e-02    1.0192384375e+05
    2.0912945271e-02    1.0192435156e+05
    2.0935632288e-02    1.0191550781e+05
    2.0958306268e-02    1.0190821094e+05
    2.0980965346e-02    1.0190599219e+05
    2.1003607661e-02    1.0190027344e+05
    2.1026238799e-02    1.0188632031e+05
    2.1048855036e-02    1.0187790625e+05
    2.1071458235e-02    1.0187356250e+05
    2.1094048396e-02    1.0187067969e+05
    2.1116625518e-02    1.0186508594e+05
    2.1139191464e-02    1.0185842969e+05
    2.1161744371e-02    1.0184243750e+05
    2.1184286103e-02    1.0183546875e+05
    2.1206818521e-02    1.0182857031e+05
    2.1229337901e-02    1.0182178906e+05
    2.1251846105e-02    1.0181516406e+05
    2.1274344996e-02    1.0181857031e+05
    2.1296832711e-02    1.0180578906e+05
    2.1319312975e-02    1.0179617969e+05
    2.1341778338e-02    1.0178864844e+05
    2.1364232525e-02    1.0178416406e+05
    2.1386675537e-02    1.0177302344e+05
    2.1409107372e-02    1.0176758594e+05
    2.1431528032e-02    1.0176433594e+05
    2.1453931928e-02    1.0175589844e+05
    2.1476324648e-02    1.0174388281e+05
    2.1498700604e-02    1.0174266406e+05
    2.1521063522e-02    1.0172671875e+05
    2.1543409675e-02    1.0172119531e+05
    2.1565740928e-02    1.0171816406e+05
    2.1588053554e-02    1.0171014844e+05
    2.1610351279e-02    1.0170322656e+05
    2.1632634103e-02    1.0170180469e+05
    2.1654898301e-02    1.0169828125e+05
    2.1677147597e-02    1.0169056250e+05
    2.1699378267e-02    1.0168988281e+05
    2.1721594036e-02    1.0168378906e+05
    2.1743793041e-02    1.0168166406e+05
    2.1765975282e-02    1.0167488281e+05
    2.1788140759e-02    1.0167110156e+05
    2.1810289472e-02    1.0166634375e+05
    2.1832419559e-02    1.0166421094e+05
    2.1854531020e-02    1.0166839844e+05
    2.1876627579e-02    1.0166959375e+05
    2.1898705512e-02    1.0166634375e+05
    2.1920768544e-02    1.0165858594e+05
    2.1942811087e-02    1.0166356250e+05
    2.1964838728e-02    1.0166208594e+05
    2.1986849606e-02    1.0166100000e+05
    2.2008845583e-02    1.0166959375e+05
    2.2030822933e-02    1.0166825000e+05
    2.2052785382e-02    1.0166841406e+05
    2.2074732929e-02    1.0166872656e+05
    2.2096665576e-02    1.0166828906e+05
    2.2118583322e-02    1.0167055469e+05
    2.2140489891e-02    1.0167906250e+05
    2.2162377834e-02    1.0168106250e+05
    2.2184254602e-02    1.0168789844e+05
    2.2206118330e-02    1.0169164844e+05
    2.2227969021e-02    1.0169428125e+05
    2.2249806672e-02    1.0169335156e+05
    2.2271629423e-02    1.0168996875e+05
    2.2293440998e-02    1.0169446094e+05
    2.2315241396e-02    1.0170265625e+05
    2.2337028757e-02    1.0170531250e+05
    2.2358803079e-02    1.0170575000e+05
    2.2380566224e-02    1.0170383594e+05
    2.2402318195e-02    1.0170337500e+05
    2.2424057126e-02    1.0170499219e+05
    2.2445784882e-02    1.0170712500e+05
    2.2467501462e-02    1.0170415625e+05
    2.2489206865e-02    1.0170453125e+05
    2.2510899231e-02    1.0170550000e+05
    2.2532582283e-02    1.0170625781e+05
    2.2554252297e-02    1.0170586719e+05
    2.2575911134e-02    1.0170172656e+05
    2.2597560659e-02    1.0169722656e+05
    2.2619199008e-02    1.0169578125e+05
    2.2640828043e-02    1.0169522656e+05
    2.2662445903e-02    1.0169358594e+05
    2.2684050724e-02    1.0169322656e+05
    2.2705646232e-02    1.0169296875e+05
    2.2727232426e-02    1.0169389844e+05
    2.2748809308e-02    1.0169194531e+05
    2.2770375013e-02    1.0169003125e+05
    2.2791929543e-02    1.0169521094e+05
    2.2813472897e-02    1.0170022656e+05
    2.2835006937e-02    1.0170041406e+05
    2.2856531665e-02    1.0170266406e+05
    2.2878047079e-02    1.0170988281e+05
    2.2899549454e-02    1.0171688281e+05
    2.2921044379e-02    1.0171825000e+05
    2.2942528129e-02    1.0171947656e+05
    2.2964000702e-02    1.0172077344e+05
    2.2985465825e-02    1.0172271094e+05
    2.3006917909e-02    1.0172596094e+05
    2.3028360680e-02    1.0172710156e+05
    2.3049792275e-02    1.0173072656e+05
    2.3071214557e-02    1.0174246094e+05
    2.3092625663e-02    1.0173553906e+05
    2.3114029318e-02    1.0173866406e+05
    2.3135419935e-02    1.0174033594e+05
    2.3156799376e-02    1.0173359375e+05
    2.3178169504e-02    1.0173516406e+05
    2.3199530318e-02    1.0173535156e+05
    2.3220879957e-02    1.0173249219e+05
    2.3242218420e-02    1.0172808594e+05
    2.3263547570e-02    1.0172796094e+05
    2.3284865543e-02    1.0172838281e+05
    2.3306174204e-02    1.0172764844e+05
    2.3327469826e-02    1.0172641406e+05
    2.3348756135e-02    1.0173227344e+05
    2.3370031267e-02    1.0173391406e+05
    2.3391297087e-02    1.0173528906e+05
    2.3412553594e-02    1.0173812500e+05
    2.3433798924e-02    1.0174075781e+05
    2.3455033079e-02    1.0174850000e+05
    2.3476256058e-02    1.0175691406e+05
    2.3497469723e-02    1.0177125000e+05
    2.3518672213e-02    1.0177578906e+05
    2.3539865389e-02    1.0178581250e+05
    2.3561049253e-02    1.0179007031e+05
    2.3582221940e-02    1.0179212500e+05
    2.3603385314e-02    1.0180353125e+05
    2.3624535650e-02    1.0180777344e+05
    2.3645676672e-02    1.0181246875e+05
    2.3666808382e-02    1.0182739844e+05
    2.3687927052e-02    1.0183700781e+05
    2.3709038273e-02    1.0184677344e+05
    2.3730138317e-02    1.0185207031e+05
    2.3751227185e-02    1.0185856250e+05
    2.3772306740e-02    1.0187224219e+05
    2.3793375120e-02    1.0187763281e+05
    2.3814432323e-02    1.0189269531e+05
    2.3835480213e-02    1.0190889844e+05
    2.3856516927e-02    1.0191521875e+05
    2.3877544329e-02    1.0193241406e+05
    2.3898560554e-02    1.0194966406e+05
    2.3919565603e-02    1.0196863281e+05
    2.3940561339e-02    1.0197839844e+05
    2.3961545900e-02    1.0199657031e+05
    2.3982519284e-02    1.0200933594e+05
    2.4003483355e-02    1.0202940625e+05
    2.4024436250e-02    1.0204175000e+05
    2.4045377970e-02    1.0206367969e+05
    2.4066310376e-02    1.0207758594e+05
    2.4087233469e-02    1.0208071875e+05
    2.4108145386e-02    1.0208559375e+05
    2.4129044265e-02    1.0209552344e+05
    2.4149935693e-02    1.0209653906e+05
    2.4170814082e-02    1.0209652344e+05
    2.4191683158e-02    1.0209508594e+05
    2.4212542921e-02    1.0208271875e+05
    2.4233391508e-02    1.0207418750e+05
    2.4254228920e-02    1.0205067969e+05
    2.4275057018e-02    1.0203133594e+05
    2.4295873940e-02    1.0199392969e+05
    2.4316681549e-02    1.0195778906e+05
    2.4337477982e-02    1.0191367969e+05
    2.4358265102e-02    1.0187075000e+05
    2.4379042909e-02    1.0182466406e+05
    2.4399809539e-02    1.0177668750e+05
    2.4420566857e-02    1.0172691406e+05
    2.4441312999e-02    1.0167693750e+05
    2.4462047964e-02    1.0162799219e+05
    2.4482775480e-02    1.0159296875e+05
    2.4503491819e-02    1.0156289844e+05
    2.4524198845e-02    1.0154271875e+05
    2.4544894695e-02    1.0152847656e+05
    2.4565581232e-02    1.0152456250e+05
    2.4586258456e-02    1.0152024219e+05
    2.4606924504e-02    1.0152800781e+05
    2.4627581239e-02    1.0154797656e+05
    2.4648228660e-02    1.0157184375e+05
    2.4668866768e-02    1.0160078906e+05
    2.4689495564e-02    1.0162475781e+05
    2.4710113183e-02    1.0165317969e+05
    2.4730721489e-02    1.0168543750e+05
    2.4751318619e-02    1.0171667969e+05
    2.4771906435e-02    1.0175011719e+05
    2.4792486802e-02    1.0178430469e+05
    2.4813055992e-02    1.0181661719e+05
    2.4833614007e-02    1.0184858594e+05
    2.4854162708e-02    1.0187850000e+05
    2.4874702096e-02    1.0190678906e+05
    2.4895232171e-02    1.0193727344e+05
    2.4915752932e-02    1.0196009375e+05
    2.4936262518e-02    1.0199050781e+05
    2.4956764653e-02    1.0202174219e+05
    2.4977253750e-02    1.0204712500e+05
    2.4997735396e-02    1.0207196094e+05
    2.5018205866e-02    1.0210385156e+05
    2.5038668886e-02    1.0213413281e+05
    2.5059120730e-02    1.0216268750e+05
    2.5079563260e-02    1.0218925781e+05
    2.5099996477e-02    1.0221325781e+05
    2.5120420381e-02    1.0223903906e+05
    2.5140833110e-02    1.0226557031e+05
    2.5161236525e-02    1.0228907031e+05
    2.5181630626e-02    1.0231449219e+05
    2.5202017277e-02    1.0232817969e+05
    2.5222390890e-02    1.0234078906e+05
    2.5242757052e-02    1.0235328906e+05
    2.5263112038e-02    1.0236452344e+05
    2.5283459574e-02    1.0237365625e+05
    2.5303795934e-02    1.0237534375e+05
    2.5324124843e-02    1.0237656250e+05
    2.5344440714e-02    1.0237321875e+05
    2.5364749134e-02    1.0236919531e+05
    2.5385048240e-02    1.0236310156e+05
    2.5405339897e-02    1.0236085156e+05
    2.5425618514e-02    1.0235624219e+05
    2.5445887819e-02    1.0235328906e+05
    2.5466147810e-02    1.0234967969e+05
    2.5486400351e-02    1.0234149219e+05
    2.5506639853e-02    1.0233256250e+05
    2.5526873767e-02    1.0232285156e+05
    2.5547094643e-02    1.0231439844e+05
    2.5567308068e-02    1.0230422656e+05
    2.5587510318e-02    1.0229435156e+05
    2.5607703254e-02    1.0228566406e+05
    2.5627886876e-02    1.0228102344e+05
    2.5648061186e-02    1.0227057031e+05
    2.5668226182e-02    1.0225584375e+05
    2.5688380003e-02    1.0224952344e+05
    2.5708526373e-02    1.0223199219e+05
    2.5728661567e-02    1.0221953906e+05
    2.5748789310e-02    1.0221115625e+05
    2.5768904015e-02    1.0219716406e+05
    2.5789011270e-02    1.0218878906e+05
    2.5809109211e-02    1.0217959375e+05
    2.5829195976e-02    1.0217016406e+05
    2.5849273428e-02    1.0216283594e+05
    2.5869343430e-02    1.0214505469e+05
    2.5889402255e-02    1.0213625781e+05
    2.5909451768e-02    1.0212930469e+05
    2.5929493830e-02    1.0212658594e+05
    2.5949522853e-02    1.0211871875e+05
    2.5969544426e-02    1.0211138281e+05
    2.5989556685e-02    1.0209371094e+05
    2.6009559631e-02    1.0209577344e+05
    2.6029553264e-02    1.0208915625e+05
    2.6049537584e-02    1.0208247656e+05
    2.6069512591e-02    1.0208559375e+05
    2.6089478284e-02    1.0208008594e+05
    2.6109432802e-02    1.0207482031e+05
    2.6129379869e-02    1.0207852344e+05
    2.6149315760e-02    1.0207241406e+05
    2.6169244200e-02    1.0206738281e+05
    2.6189163327e-02    1.0206243750e+05
    2.6209073141e-02    1.0205774219e+05
    2.6228975505e-02    1.0205287500e+05
    2.6248866692e-02    1.0205875781e+05
    2.6268748567e-02    1.0205492969e+05
    2.6288621128e-02    1.0205612500e+05
    2.6308484375e-02    1.0205524219e+05
    2.6328338310e-02    1.0205221094e+05
    2.6348184794e-02    1.0204915625e+05
    2.6368021965e-02    1.0204853906e+05
    2.6387847960e-02    1.0204521094e+05
    2.6407664642e-02    1.0205033594e+05
    2.6427472010e-02    1.0205066406e+05
    2.6447271928e-02    1.0204846875e+05
    2.6467062533e-02    1.0204767969e+05
    2.6486843824e-02    1.0204762500e+05
    2.6506617665e-02    1.0204894531e+05
    2.6526380330e-02    1.0205617969e+05
    2.6546133682e-02    1.0205627344e+05
    2.6565877721e-02    1.0205655469e+05
    2.6585612446e-02    1.0205583594e+05
    2.6605339721e-02    1.0205525000e+05
    2.6625057682e-02    1.0206117969e+05
    2.6644766331e-02    1.0206496875e+05
    2.6664465666e-02    1.0206515625e+05
    2.6684155688e-02    1.0205605469e+05
    2.6703836396e-02    1.0205800000e+05
    2.6723509654e-02    1.0206605469e+05
    2.6743173599e-02    1.0206431250e+05
    2.6762828231e-02    1.0205906250e+05
    2.6782475412e-02    1.0206178125e+05
    2.6802113280e-02    1.0206868750e+05
    2.6821739972e-02    1.0206402344e+05
    2.6841359213e-02    1.0205778125e+05
    2.6860967278e-02    1.0205700781e+05
    2.6880569756e-02    1.0205647656e+05
    2.6900164783e-02    1.0205340625e+05
    2.6919748634e-02    1.0204896875e+05
    2.6939325035e-02    1.0204721094e+05
    2.6958892122e-02    1.0204491406e+05
    2.6978449896e-02    1.0204828125e+05
    2.6997998357e-02    1.0203730469e+05
    2.7017539367e-02    1.0203465625e+05
    2.7037071064e-02    1.0203246094e+05
    2.7056595311e-02    1.0203074219e+05
    2.7076110244e-02    1.0203003906e+05
    2.7095617726e-02    1.0202753906e+05
    2.7115115896e-02    1.0202681250e+05
    2.7134604752e-02    1.0202521875e+05
    2.7154086158e-02    1.0202975000e+05
    2.7173558250e-02    1.0202946094e+05
    2.7193021029e-02    1.0203397656e+05
    2.7212476358e-02    1.0203485156e+05
    2.7231922373e-02    1.0203597656e+05
    2.7251357213e-02    1.0204186719e+05
    2.7270786464e-02    1.0204427344e+05
    2.7290204540e-02    1.0205307031e+05
    2.7309613302e-02    1.0205715625e+05
    2.7329014614e-02    1.0206505469e+05
    2.7348404750e-02    1.0207472656e+05
    2.7367785573e-02    1.0208028906e+05
    2.7387158945e-02    1.0208871875e+05
    2.7406521142e-02    1.0209950000e+05
    2.7425874025e-02    1.0211239844e+05
    2.7445219457e-02    1.0212413281e+05
    2.7464553714e-02    1.0213787500e+05
    2.7483878657e-02    1.0215203125e+05
    2.7503194287e-02    1.0216086719e+05
    2.7522502467e-02    1.0217231250e+05
    2.7541799471e-02    1.0218502344e+05
    2.7561087161e-02    1.0219253906e+05
    2.7580365539e-02    1.0220124219e+05
    2.7599634603e-02    1.0220885156e+05
    2.7618894354e-02    1.0221647656e+05
    2.7638144791e-02    1.0222355469e+05
    2.7657385916e-02    1.0223160156e+05
    2.7676619589e-02    1.0223825781e+05
    2.7695843950e-02    1.0223888281e+05
    2.7715058997e-02    1.0224572656e+05
    2.7734262869e-02    1.0224496094e+05
    2.7753459290e-02    1.0224250000e+05
    2.7772648260e-02    1.0224382031e+05
    2.7791827917e-02    1.0223753906e+05
    2.7810998261e-02    1.0223864844e+05
    2.7830159292e-02    1.0223452344e+05
    2.7849311009e-02    1.0222571094e+05
    2.7868455276e-02    1.0222266406e+05
    2.7887590230e-02    1.0220980469e+05
    2.7906717733e-02    1.0219446094e+05
    2.7925835922e-02    1.0218272656e+05
    2.7944946662e-02    1.0217225781e+05
    2.7964048088e-02    1.0216589844e+05
    2.7983140200e-02    1.0215677344e+05
    2.8002224863e-02    1.0214346094e+05
    2.8021300212e-02    1.0213075781e+05
    2.8040368110e-02    1.0211966406e+05
    2.8059426695e-02    1.0210691406e+05
    2.8078475967e-02    1.0209539844e+05
    2.8097519651e-02    1.0208233594e+05
    2.8116554022e-02    1.0207578125e+05
    2.8135580942e-02    1.0207372656e+05
    2.8154598549e-02    1.0207364844e+05
    2.8173606843e-02    1.0206888281e+05
    2.8192607686e-02    1.0205958594e+05
    2.8211599216e-02    1.0205642969e+05
    2.8230583295e-02    1.0206485156e+05
    2.8249559924e-02    1.0206439844e+05
    2.8268527240e-02    1.0207419531e+05
    2.8287487105e-02    1.0207705469e+05
    2.8306435794e-02    1.0208906250e+05
    2.8325378895e-02    1.0209693750e+05
    2.8344312683e-02    1.0210533594e+05
    2.8363237157e-02    1.0210983594e+05
    2.8382156044e-02    1.0211489844e+05
    2.8401065618e-02    1.0212396094e+05
    2.8419965878e-02    1.0212827344e+05
    2.8438858688e-02    1.0213533594e+05
    2.8457742184e-02    1.0214275000e+05
    2.8476616368e-02    1.0215183594e+05
    2.8495483100e-02    1.0215578906e+05
    2.8514338657e-02    1.0216022656e+05
    2.8533160686e-02    1.0216053906e+05
    2.8551930562e-02    1.0216127344e+05
    2.8570635244e-02    1.0216578906e+05
    2.8589271009e-02    1.0217081250e+05
    2.8607837856e-02    1.0216893750e+05
    2.8626350686e-02    1.0217085156e+05
    2.8644818813e-02    1.0217131250e+05
    2.8663259000e-02    1.0216687500e+05
    2.8681686148e-02    1.0216789844e+05
    2.8700113297e-02    1.0216862500e+05
    2.8718546033e-02    1.0216739844e+05
    2.8736986220e-02    1.0216466406e+05
    2.8755431995e-02    1.0216564844e+05
    2.8773877770e-02    1.0216060156e+05
    2.8792314231e-02    1.0216140625e+05
    2.8810730204e-02    1.0216463281e+05
    2.8829116374e-02    1.0217132031e+05
    2.8847465292e-02    1.0217122656e+05
    2.8865773231e-02    1.0216356250e+05
    2.8884036466e-02    1.0216444531e+05
    2.8902258724e-02    1.0216603906e+05
    2.8920443729e-02    1.0217289844e+05
    2.8938598931e-02    1.0218008594e+05
    2.8956729919e-02    1.0218197656e+05
    2.8974846005e-02    1.0217700000e+05
    2.8992949054e-02    1.0218288281e+05
    2.9011042789e-02    1.0218187500e+05
    2.9029129073e-02    1.0218812500e+05
    2.9047204182e-02    1.0219213281e+05
    2.9065268114e-02    1.0219388281e+05
    2.9083315283e-02    1.0219333594e+05
    2.9101338238e-02    1.0219380469e+05
    2.9119335115e-02    1.0219247656e+05
    2.9137304053e-02    1.0219871094e+05
    2.9155241325e-02    1.0219640625e+05
    2.9173148796e-02    1.0219791406e+05
    2.9191024601e-02    1.0219763281e+05
    2.9208874330e-02    1.0219850000e+05
    2.9226697981e-02    1.0219989844e+05
    2.9244501144e-02    1.0219652344e+05
    2.9262285680e-02    1.0219646094e+05
    2.9280053452e-02    1.0219808594e+05
    2.9297806323e-02    1.0219847656e+05
    2.9315544292e-02    1.0219865625e+05
    2.9333265498e-02    1.0219750000e+05
    2.9350971803e-02    1.0219308594e+05
    2.9368655756e-02    1.0219287500e+05
    2.9386319220e-02    1.0218659375e+05
    2.9403960332e-02    1.0218478906e+05
    2.9421577230e-02    1.0218408594e+05
    2.9439168051e-02    1.0218221875e+05
    2.9456734657e-02    1.0218036719e+05
    2.9474277049e-02    1.0218146094e+05
    2.9491795227e-02    1.0218153906e+05
    2.9509292915e-02    1.0218805469e+05
    2.9526771978e-02    1.0219133594e+05
    2.9544232413e-02    1.0218722656e+05
    2.9561674222e-02    1.0218185156e+05
    2.9579099268e-02    1.0218771094e+05
    2.9596509412e-02    1.0219375000e+05
    2.9613900930e-02    1.0219435156e+05
    2.9631273821e-02    1.0219560156e+05
    2.9648626223e-02    1.0219681250e+05
    2.9665958136e-02    1.0219742969e+05
    2.9683271423e-02    1.0219700000e+05
    2.9700560495e-02    1.0219891406e+05
    2.9717829078e-02    1.0220027344e+05
    2.9735075310e-02    1.0220181250e+05
    2.9752301052e-02    1.0220312500e+05
    2.9769508168e-02    1.0221174219e+05
    2.9786696658e-02    1.0221605469e+05
    2.9803866521e-02    1.0221884375e+05
    2.9821017757e-02    1.0222053906e+05
    2.9838152230e-02    1.0222143750e+05
    2.9855269939e-02    1.0221500000e+05
    2.9872370884e-02    1.0221510156e+05
    2.9889453202e-02    1.0221637500e+05
    2.9906518757e-02    1.0221889844e+05
    2.9923565686e-02    1.0223021875e+05
    2.9940593988e-02    1.0222782031e+05
    2.9957601801e-02    1.0222347656e+05
    2.9974590987e-02    1.0222553906e+05
    2.9991561547e-02    1.0222639844e+05
    3.0008511618e-02    1.0222889844e+05
    3.0025444925e-02    1.0223018750e+05
    3.0042361468e-02    1.0223139844e+05
    3.0059259385e-02    1.0223135156e+05
    3.0076142401e-02    1.0222825781e+05
    3.0093006790e-02    1.0222469531e+05
    3.0109854415e-02    1.0222375000e+05
    3.0126683414e-02    1.0222419531e+05
    3.0143497512e-02    1.0221383594e+05
    3.0160292983e-02    1.0221210156e+05
    3.0177071691e-02    1.0220185156e+05
    3.0193833634e-02    1.0219983594e+05
    3.0210576952e-02    1.0219302344e+05
    3.0227303505e-02    1.0218585156e+05
    3.0244011432e-02    1.0218433594e+05
    3.0260702595e-02    1.0218146875e+05
    3.0277376994e-02    1.0217083594e+05
    3.0294034630e-02    1.0216310156e+05
    3.0310675502e-02    1.0215910156e+05
    3.0327299610e-02    1.0215266406e+05
    3.0343905091e-02    1.0214133594e+05
    3.0360495672e-02    1.0213925781e+05
    3.0377071351e-02    1.0214200000e+05
    3.0393628404e-02    1.0213880469e+05
    3.0410168692e-02    1.0213582031e+05
    3.0426690355e-02    1.0213122656e+05
    3.0443195254e-02    1.0212792969e+05
    3.0459685251e-02    1.0212877344e+05
    3.0476156622e-02    1.0212858594e+05
    3.0492611229e-02    1.0212809375e+05
    3.0509050936e-02    1.0212875000e+05
    3.0525473878e-02    1.0213402344e+05
    3.0541881919e-02    1.0214300000e+05
    3.0558273196e-02    1.0214782031e+05
    3.0574647710e-02    1.0215864844e+05
    3.0591005459e-02    1.0216446094e+05
    3.0607348308e-02    1.0217733594e+05
    3.0623674393e-02    1.0217982031e+05
    3.0639985576e-02    1.0219236719e+05
    3.0656279996e-02    1.0219649219e+05
    3.0672557652e-02    1.0220016406e+05
    3.0688818544e-02    1.0220403125e+05
    3.0705062672e-02    1.0221396875e+05
    3.0721291900e-02    1.0222286719e+05
    3.0737506226e-02    1.0222688281e+05
    3.0753703788e-02    1.0223153906e+05
    3.0769886449e-02    1.0223563281e+05
    3.0786054209e-02    1.0223953906e+05
    3.0802207068e-02    1.0224159375e+05
    3.0818343163e-02    1.0223866406e+05
    3.0834466219e-02    1.0224357031e+05
    3.0850572512e-02    1.0224721094e+05
    3.0866663903e-02    1.0225074219e+05
    3.0882738531e-02    1.0225346094e+05
    3.0898798257e-02    1.0224737500e+05
    3.0914843082e-02    1.0225024219e+05
    3.0930871144e-02    1.0225285156e+05
    3.0946886167e-02    1.0225615625e+05
    3.0962884426e-02    1.0224757031e+05
    3.0978867784e-02    1.0224888281e+05
    3.0994836241e-02    1.0224060156e+05
    3.1010789797e-02    1.0224250781e+05
    3.1026728451e-02    1.0224247656e+05
    3.1042650342e-02    1.0224303125e+05
    3.1058559194e-02    1.0224406250e+05
    3.1074455008e-02    1.0223402344e+05
    3.1090334058e-02    1.0223532031e+05
    3.1106200069e-02    1.0223427344e+05
    3.1122051179e-02    1.0223541406e+05
    3.1137887388e-02    1.0223527344e+05
    3.1153710559e-02    1.0223033594e+05
    3.1169516966e-02    1.0222428906e+05
    3.1185310334e-02    1.0222372656e+05
    3.1201090664e-02    1.0222166406e+05
    3.1216854230e-02    1.0221012500e+05
    3.1232602894e-02    1.0220808594e+05
    3.1248336658e-02    1.0220597656e+05
    3.1264055520e-02    1.0220390625e+05
    3.1279761344e-02    1.0220125781e+05
    3.1295452267e-02    1.0219975781e+05
    3.1311132014e-02    1.0219702344e+05
    3.1326796860e-02    1.0219524219e+05
    3.1342446804e-02    1.0219047656e+05
    3.1358085573e-02    1.0218146094e+05
    3.1373709440e-02    1.0217814844e+05
    3.1389318407e-02    1.0217553125e+05
    3.1404916197e-02    1.0218288281e+05
    3.1420499086e-02    1.0218010156e+05
    3.1436067075e-02    1.0217796875e+05
    3.1451620162e-02    1.0217594531e+05
    3.1467158347e-02    1.0217296094e+05
    3.1482685357e-02    1.0217658594e+05
    3.1498193741e-02    1.0218035156e+05
    3.1513694674e-02    1.0217814844e+05
    3.1529176980e-02    1.0217847656e+05
    3.1544648111e-02    1.0218068750e+05
    3.1560108066e-02    1.0218642969e+05
    3.1575553119e-02    1.0218717969e+05
    3.1590986997e-02    1.0218578906e+05
    3.1606405973e-02    1.0218678125e+05
    3.1621813774e-02    1.0218678906e+05
    3.1637206674e-02    1.0218589844e+05
    3.1652588397e-02    1.0218747656e+05
    3.1667951494e-02    1.0218852344e+05
    3.1683307141e-02    1.0218847656e+05
    3.1698647887e-02    1.0219010156e+05
    3.1713977456e-02    1.0218935156e+05
    3.1729292125e-02    1.0219016406e+05
    3.1744595617e-02    1.0219075000e+05
    3.1759884208e-02    1.0218492969e+05
    3.1775161624e-02    1.0218046094e+05
    3.1790427864e-02    1.0217955469e+05
    3.1805675477e-02    1.0218452344e+05
    3.1820915639e-02    1.0218910156e+05
    3.1836140901e-02    1.0218978906e+05
    3.1851354986e-02    1.0218756250e+05
    3.1866557896e-02    1.0218466406e+05
    3.1881745905e-02    1.0218453125e+05
    3.1896922737e-02    1.0218833594e+05
    3.1912088394e-02    1.0218902344e+05
    3.1927239150e-02    1.0218871094e+05
    3.1942378730e-02    1.0218914844e+05
    3.1957507133e-02    1.0219100781e+05
    3.1972620636e-02    1.0219546094e+05
    3.1987726688e-02    1.0219983594e+05
    3.2002814114e-02    1.0219388281e+05
    3.2017890364e-02    1.0219417969e+05
    3.2032959163e-02    1.0219559375e+05
    3.2048013061e-02    1.0219585156e+05
    3.2063052058e-02    1.0219672656e+05
    3.2078083605e-02    1.0219816406e+05
    3.2093103975e-02    1.0219894531e+05
    3.2108109444e-02    1.0219971094e+05
    3.2123107463e-02    1.0220035156e+05
    3.2138090581e-02    1.0220086719e+05
    3.2153062522e-02    1.0220127344e+05
    3.2168023288e-02    1.0220096875e+05
    3.2182972878e-02    1.0220175000e+05
    3.2197911292e-02    1.0220081250e+05
    3.2212834805e-02    1.0220211719e+05
    3.2227750868e-02    1.0220236719e+05
    3.2242652029e-02    1.0220150781e+05
    3.2257542014e-02    1.0220303125e+05
    3.2272424549e-02    1.0220353906e+05
    3.2287292182e-02    1.0220417969e+05
    3.2302148640e-02    1.0220496875e+05
    3.2316997647e-02    1.0220589844e+05
    3.2331831753e-02    1.0221142969e+05
    3.2346658409e-02    1.0221253125e+05
    3.2361470163e-02    1.0220909375e+05
    3.2376270741e-02    1.0221060156e+05
    3.2391063869e-02    1.0221158594e+05
    3.2405842096e-02    1.0221421094e+05
    3.2420612872e-02    1.0221511719e+05
    3.2435368747e-02    1.0221600000e+05
    3.2450113446e-02    1.0221685156e+05
    3.2464850694e-02    1.0221830469e+05
    3.2479573041e-02    1.0221913281e+05
    3.2494287938e-02    1.0221991406e+05
    3.2508991659e-02    1.0222011719e+05
    3.2523684204e-02    1.0222089844e+05
    3.2538365573e-02    1.0222162500e+05
    3.2553035766e-02    1.0222235156e+05
    3.2567698509e-02    1.0222310156e+05
    3.2582346350e-02    1.0222382031e+05
    3.2596986741e-02    1.0222450781e+05
    3.2611619681e-02    1.0222517969e+05
    3.2626237720e-02    1.0222586719e+05
    3.2640848309e-02    1.0222658594e+05
    3.2655447721e-02    1.0222789844e+05
    3.2670035958e-02    1.0222925781e+05
    3.2684613019e-02    1.0223014844e+05
    3.2699178904e-02    1.0223116406e+05
    3.2713737339e-02    1.0223227344e+05
    3.2728284597e-02    1.0223396875e+05
    3.2742820680e-02    1.0223568750e+05
    3.2757349312e-02    1.0223680469e+05
    3.2771866769e-02    1.0223733594e+05
    3.2786373049e-02    1.0223894531e+05
    3.2800871879e-02    1.0223986719e+05
    3.2815355808e-02    1.0224066406e+05
    3.2829832286e-02    1.0224021094e+05
    3.2844301313e-02    1.0223747656e+05
    3.2858755440e-02    1.0223750000e+05
    3.2873202115e-02    1.0223914844e+05
    3.2887637615e-02    1.0223489844e+05
    3.2902065665e-02    1.0223247656e+05
    3.2916482538e-02    1.0223971094e+05
    3.2930891961e-02    1.0224128906e+05
    3.2945290208e-02    1.0223708594e+05
    3.2959677279e-02    1.0223255469e+05
    3.2974056900e-02    1.0223257031e+05
    3.2988425344e-02    1.0223303906e+05
    3.3002786338e-02    1.0223218750e+05
    3.3017136157e-02    1.0223163281e+05
    3.3031478524e-02    1.0222632031e+05
    3.3045809716e-02    1.0221997656e+05
    3.3060129732e-02    1.0221930469e+05
    3.3074442297e-02    1.0221692969e+05
    3.3088747412e-02    1.0221521094e+05
    3.3103041351e-02    1.0221821094e+05
    3.3117324114e-02    1.0221596875e+05
    3.3131599426e-02    1.0221478906e+05
    3.3145863563e-02    1.0220814844e+05
    3.3160120249e-02    1.0220721875e+05
    3.3174365759e-02    1.0220616406e+05
    3.3188603818e-02    1.0220496094e+05
    3.3202830702e-02    1.0219831250e+05
    3.3217050135e-02    1.0219178125e+05
    3.3231258392e-02    1.0218975781e+05
    3.3245459199e-02    1.0219589844e+05
    3.3259648830e-02    1.0219519531e+05
    3.3273831010e-02    1.0219400000e+05
    3.3288005739e-02    1.0219172656e+05
    3.3302169293e-02    1.0219069531e+05
    3.3316325396e-02    1.0218964844e+05
    3.3330474049e-02    1.0218855469e+05
    3.3344611526e-02    1.0218510156e+05
    3.3358741552e-02    1.0217902344e+05
    3.3372864127e-02    1.0218328125e+05
    3.3386975527e-02    1.0218419531e+05
    3.3401079476e-02    1.0218407031e+05
    3.3415172249e-02    1.0218289844e+05
    3.3429257572e-02    1.0218231250e+05
    3.3443335444e-02    1.0218058594e+05
    3.3457405865e-02    1.0217942969e+05
    3.3471468836e-02    1.0217878125e+05
    3.3485524356e-02    1.0217702344e+05
    3.3499568701e-02    1.0217638281e+05
    3.3513605595e-02    1.0217521875e+05
    3.3527631313e-02    1.0217462500e+05
    3.3541653305e-02    1.0217346875e+05
    3.3555664122e-02    1.0217059375e+05
    3.3569667488e-02    1.0217239844e+05
    3.3583663404e-02    1.0217014844e+05
    3.3597648144e-02    1.0216914844e+05
    3.3611625433e-02    1.0216813281e+05
    3.3625595272e-02    1.0216711719e+05
    3.3639557660e-02    1.0216378906e+05
    3.3653512597e-02    1.0216041406e+05
    3.3667460084e-02    1.0215461719e+05
    3.3681396395e-02    1.0216089844e+05
    3.3695328981e-02    1.0216224219e+05
    3.3709254116e-02    1.0215840625e+05
    3.3723168075e-02    1.0215508594e+05
    3.3737078309e-02    1.0215340625e+05
    3.3750977367e-02    1.0215446094e+05
    3.3764872700e-02    1.0215041406e+05
    3.3778760582e-02    1.0214675000e+05
    3.3792637289e-02    1.0214186719e+05
    3.3806510270e-02    1.0214280469e+05
    3.3820372075e-02    1.0214025000e+05
    3.3834230155e-02    1.0213708594e+05
    3.3848077059e-02    1.0214096094e+05
    3.3861916512e-02    1.0213489844e+05
    3.3875752240e-02    1.0213350781e+05
    3.3889576793e-02    1.0213325781e+05
    3.3903393894e-02    1.0213127344e+05
    3.3917203546e-02    1.0212966406e+05
    3.3931009471e-02    1.0212749219e+05
    3.3944804221e-02    1.0212582031e+05
    3.3958595246e-02    1.0212403906e+05
    3.3972378820e-02    1.0212216406e+05
    3.3986151218e-02    1.0212021094e+05
    3.3999919891e-02    1.0211710156e+05
    3.4013681114e-02    1.0211641406e+05
    3.4027434886e-02    1.0211471094e+05
    3.4041177481e-02    1.0211427344e+05
    3.4054916352e-02    1.0211228125e+05
    3.4068647772e-02    1.0211210156e+05
    3.4082375467e-02    1.0211035156e+05
    3.4096091986e-02    1.0211043750e+05
    3.4109804779e-02    1.0211241406e+05
    3.4123510122e-02    1.0211839844e+05
    3.4137208015e-02    1.0211746875e+05
    3.4150898457e-02    1.0211014844e+05
    3.4164581448e-02    1.0210689844e+05
    3.4178260714e-02    1.0210589844e+05
    3.4191932529e-02    1.0210610156e+05
    3.4205596894e-02    1.0210583594e+05
    3.4219253808e-02    1.0210514844e+05
    3.4232903272e-02    1.0210917969e+05
    3.4246545285e-02    1.0211383594e+05
    3.4260183573e-02    1.0210521094e+05
    3.4273810685e-02    1.0210236719e+05
    3.4287434071e-02    1.0210643750e+05
    3.4301050007e-02    1.0210588281e+05
    3.4314658493e-02    1.0210175000e+05
    3.4328263253e-02    1.0209933594e+05
    3.4341860563e-02    1.0209803906e+05
    3.4355450422e-02    1.0209730469e+05
    3.4369036555e-02    1.0209889844e+05
    3.4382611513e-02    1.0209510156e+05
    3.4396182746e-02    1.0209481250e+05
    3.4409742802e-02    1.0209394531e+05
    3.4423299134e-02    1.0209305469e+05
    3.4436848015e-02    1.0209278906e+05
    3.4450393170e-02    1.0209128906e+05
    3.4463927150e-02    1.0209035156e+05
    3.4477461129e-02    1.0208991406e+05
    3.4490987659e-02    1.0208882031e+05
    3.4504506737e-02    1.0208762500e+05
    3.4518022090e-02    1.0208624219e+05
    3.4531529993e-02    1.0208194531e+05
    3.4545030445e-02    1.0207812500e+05
    3.4558523446e-02    1.0207866406e+05
    3.4572008997e-02    1.0207577344e+05
    3.4585487098e-02    1.0207618750e+05
    3.4598957747e-02    1.0206853125e+05
    3.4612424672e-02    1.0206671094e+05
    3.4625884145e-02    1.0207028125e+05
    3.4639336169e-02    1.0206869531e+05
    3.4652780741e-02    1.0206778906e+05
    3.4666225314e-02    1.0206631250e+05
    3.4679658711e-02    1.0206539844e+05
    3.4693088382e-02    1.0206447656e+05
    3.4706510603e-02    1.0206299219e+05
    3.4719929099e-02    1.0206146875e+05
    3.4733340144e-02    1.0206116406e+05
    3.4746743739e-02    1.0205928906e+05
    3.4760143608e-02    1.0205864844e+05
    3.4773536026e-02    1.0205746094e+05
    3.4786924720e-02    1.0205687500e+05
    3.4800305963e-02    1.0205578906e+05
    3.4813679755e-02    1.0205467969e+05
    3.4827046096e-02    1.0205356250e+05
    3.4840408713e-02    1.0205077344e+05
    3.4853763878e-02    1.0204905469e+05
    3.4867111593e-02    1.0205010156e+05
    3.4880455583e-02    1.0204832031e+05
    3.4893795848e-02    1.0204711719e+05
    3.4907124937e-02    1.0204535156e+05
    3.4920454025e-02    1.0204193750e+05
    3.4933775663e-02    1.0203908594e+05
    3.4947093576e-02    1.0204300000e+05
    3.4960404038e-02    1.0204181250e+05
    3.4973710775e-02    1.0203828125e+05
    3.4987010062e-02    1.0202936719e+05
endcurve
