Curveplot
LS-DYNA keyword deck by LS-PrePost                          
Time
Pressure
Defined Connection
Pressure @ 48 #pts=1745
* Minval=     9.9617789062e+04 at time=         0.0155097526
* Maxval=     1.6985164062e+05 at time=         0.0065755700
    0.0000000000e+00    9.9996789062e+04
    3.3812357287e-05    9.9996789062e+04
    6.1326652940e-05    9.9999343750e+04
    8.9102875791e-05    9.9998398438e+04
    1.1682785407e-04    9.9997468750e+04
    1.4461828687e-04    9.9998898438e+04
    1.7236733402e-04    9.9999476562e+04
    2.0016246708e-04    1.0001039844e+05
    2.2795486439e-04    9.9999570312e+04
    2.5574557367e-04    9.9999562500e+04
    2.8353667585e-04    1.0000036719e+05
    3.1133697485e-04    9.9992093750e+04
    3.3912662184e-04    9.9998781250e+04
    3.6691734567e-04    9.9998914062e+04
    3.9470891352e-04    9.9999273438e+04
    4.2249175021e-04    1.0000163281e+05
    4.5027161832e-04    1.0001203125e+05
    4.7804549104e-04    1.0000171875e+05
    5.0581363030e-04    1.0000152344e+05
    5.3357944125e-04    9.9991414062e+04
    5.6134146871e-04    1.0000125781e+05
    5.8909942163e-04    1.0000135156e+05
    6.1685312539e-04    9.9991656250e+04
    6.4460188150e-04    1.0000025000e+05
    6.7234638846e-04    1.0000294531e+05
    7.0008635521e-04    1.0001112500e+05
    7.2782178177e-04    1.0000184375e+05
    7.5555208605e-04    9.9992335938e+04
    7.8327720985e-04    9.9995351562e+04
    8.1099680392e-04    1.0000009375e+05
    8.3871174138e-04    1.0000060156e+05
    8.6642213864e-04    1.0000210156e+05
    8.9412782108e-04    1.0000119531e+05
    9.2182843946e-04    1.0000249219e+05
    9.4952445943e-04    1.0000278125e+05
    9.7721535712e-04    1.0000161719e+05
    1.0049008997e-03    9.9993031250e+04
    1.0325826006e-03    9.9992718750e+04
    1.0602590628e-03    9.9998726562e+04
    1.0879321489e-03    1.0000618750e+05
    1.1155996472e-03    1.0000935156e+05
    1.1432634201e-03    1.0000291406e+05
    1.1709230021e-03    9.9992335938e+04
    1.1985785095e-03    9.9991687500e+04
    1.2262313394e-03    1.0000087500e+05
    1.2538790470e-03    1.0000668750e+05
    1.2815232622e-03    1.0000400781e+05
    1.3091630535e-03    1.0000414844e+05
    1.3368004002e-03    1.0000288281e+05
    1.3644339051e-03    1.0001018750e+05
    1.3920635683e-03    1.0002475781e+05
    1.4196902048e-03    1.0005307031e+05
    1.4473132323e-03    1.0009986719e+05
    1.4749332331e-03    1.0018708594e+05
    1.5025498578e-03    1.0032552344e+05
    1.5301633393e-03    1.0052208594e+05
    1.5577742597e-03    1.0077471094e+05
    1.5853822697e-03    1.0109937500e+05
    1.6129877185e-03    1.0146678125e+05
    1.6405890929e-03    1.0186614844e+05
    1.6681876732e-03    1.0225028125e+05
    1.6957829939e-03    1.0259397656e+05
    1.7233766848e-03    1.0287103125e+05
    1.7509678146e-03    1.0305059375e+05
    1.7785291420e-03    1.0313725000e+05
    1.8060547300e-03    1.0314044531e+05
    1.8335470231e-03    1.0305503906e+05
    1.8610082334e-03    1.0292182031e+05
    1.8884401070e-03    1.0274672656e+05
    1.9158447394e-03    1.0257108594e+05
    1.9432241097e-03    1.0241691406e+05
    1.9705800805e-03    1.0230196094e+05
    1.9979148638e-03    1.0222710156e+05
    2.0252298564e-03    1.0219385156e+05
    2.0525271539e-03    1.0221146094e+05
    2.0798076876e-03    1.0226516406e+05
    2.1070730872e-03    1.0234078906e+05
    2.1343247499e-03    1.0242094531e+05
    2.1615643054e-03    1.0248685156e+05
    2.1887931507e-03    1.0252668750e+05
    2.2160108201e-03    1.0254396875e+05
    2.2432196420e-03    1.0253657031e+05
    2.2704207804e-03    1.0251402344e+05
    2.2976147011e-03    1.0248416406e+05
    2.3248014040e-03    1.0244765625e+05
    2.3519827519e-03    1.0241414844e+05
    2.3791582789e-03    1.0238937500e+05
    2.4063293822e-03    1.0238014844e+05
    2.4334960617e-03    1.0238878906e+05
    2.4606597144e-03    1.0239975781e+05
    2.4878205732e-03    1.0240789844e+05
    2.5149781723e-03    1.0242930469e+05
    2.5421329774e-03    1.0244119531e+05
    2.5692859199e-03    1.0244696875e+05
    2.5964374654e-03    1.0244516406e+05
    2.6235871483e-03    1.0243859375e+05
    2.6507352013e-03    1.0243539844e+05
    2.6778825559e-03    1.0243271875e+05
    2.7050296776e-03    1.0242619531e+05
    2.7321761008e-03    1.0242278906e+05
    2.7593218256e-03    1.0241594531e+05
    2.7864677832e-03    1.0241113281e+05
    2.8136142064e-03    1.0242211719e+05
    2.8407603968e-03    1.0243460156e+05
    2.8679079842e-03    1.0245034375e+05
    2.8950548731e-03    1.0246308594e+05
    2.9222022276e-03    1.0248138281e+05
    2.9493502807e-03    1.0251678906e+05
    2.9764990322e-03    1.0257171094e+05
    3.0036487151e-03    1.0264457031e+05
    3.0307997949e-03    1.0272407031e+05
    3.0579508748e-03    1.0281810156e+05
    3.0851035845e-03    1.0291458594e+05
    3.1122572254e-03    1.0301538281e+05
    3.1394117977e-03    1.0312241406e+05
    3.1665677670e-03    1.0320541406e+05
    3.1937246677e-03    1.0326813281e+05
    3.2208829653e-03    1.0330166406e+05
    3.2480424270e-03    1.0330183594e+05
    3.2752046827e-03    1.0328677344e+05
    3.2952371985e-03    1.0326531250e+05
    3.3145032357e-03    1.0322689844e+05
    3.3336398192e-03    1.0318339844e+05
    3.3528339118e-03    1.0314275781e+05
    3.3720366191e-03    1.0310122656e+05
    3.3912549261e-03    1.0306247656e+05
    3.4104890656e-03    1.0301750000e+05
    3.4297339153e-03    1.0298032031e+05
    3.4486323129e-03    1.0293130469e+05
    3.4671388566e-03    1.0287859375e+05
    3.4854323603e-03    1.0282864844e+05
    3.5036695190e-03    1.0277131250e+05
    3.5219141282e-03    1.0270760156e+05
    3.5401545465e-03    1.0263403906e+05
    3.5583588760e-03    1.0256346094e+05
    3.5765271168e-03    1.0248725000e+05
    3.5946895368e-03    1.0242722656e+05
    3.6139658187e-03    1.0236853125e+05
    3.6330535077e-03    1.0231843750e+05
    3.6521453876e-03    1.0228262500e+05
    3.6699753255e-03    1.0225043750e+05
    3.6875614896e-03    1.0223144531e+05
    3.7050142419e-03    1.0221447656e+05
    3.7224807311e-03    1.0220086719e+05
    3.7400643341e-03    1.0218467969e+05
    3.7577797193e-03    1.0216971094e+05
    3.7755726371e-03    1.0215200000e+05
    3.7933769636e-03    1.0214408594e+05
    3.8111612666e-03    1.0213922656e+05
    3.8289318327e-03    1.0213669531e+05
    3.8467168342e-03    1.0212787500e+05
    3.8645383902e-03    1.0212086719e+05
    3.8824023213e-03    1.0211066406e+05
    3.9002960548e-03    1.0209955469e+05
    3.9182156324e-03    1.0208260156e+05
    3.9361710660e-03    1.0206436719e+05
    3.9541716687e-03    1.0204677344e+05
    3.9733103476e-03    1.0203521094e+05
    3.9924201556e-03    1.0202191406e+05
    4.0104058571e-03    1.0200577344e+05
    4.0284004062e-03    1.0199775000e+05
    4.0464363992e-03    1.0198519531e+05
    4.0656095371e-03    1.0197775000e+05
    4.0847789496e-03    1.0196614844e+05
    4.1039343923e-03    1.0196135156e+05
    4.1219722480e-03    1.0194974219e+05
    4.1400394402e-03    1.0194452344e+05
    4.1591953486e-03    1.0193528906e+05
    4.1784178466e-03    1.0193213281e+05
    4.1976389475e-03    1.0192128906e+05
    4.2168586515e-03    1.0191996875e+05
    4.2360713705e-03    1.0191103125e+05
    4.2552771047e-03    1.0190085156e+05
    4.2744791135e-03    1.0189022656e+05
    4.2936825193e-03    1.0187771094e+05
    4.3128933758e-03    1.0186539844e+05
    4.3321144767e-03    1.0184747656e+05
    4.3513495475e-03    1.0183277344e+05
    4.3705995195e-03    1.0181666406e+05
    4.3898657896e-03    1.0180410156e+05
    4.4091497548e-03    1.0178461719e+05
    4.4284537435e-03    1.0176130469e+05
    4.4477786869e-03    1.0172462500e+05
    4.4671236537e-03    1.0167803906e+05
    4.4864914380e-03    1.0162183594e+05
    4.5058806427e-03    1.0155635156e+05
    4.5252908021e-03    1.0147668750e+05
    4.5447219163e-03    1.0139761719e+05
    4.5641721226e-03    1.0131363281e+05
    4.5836409554e-03    1.0121578125e+05
    4.6031279489e-03    1.0111106250e+05
    4.6226321720e-03    1.0099557031e+05
    4.6421540901e-03    1.0086710156e+05
    4.6616927721e-03    1.0073874219e+05
    4.6812482178e-03    1.0061412500e+05
    4.7008208930e-03    1.0049591406e+05
    4.7204112634e-03    1.0039482031e+05
    4.7400193289e-03    1.0030671094e+05
    4.7596455552e-03    1.0023324219e+05
    4.7792894766e-03    1.0018103906e+05
    4.7989510931e-03    1.0015213281e+05
    4.8186304048e-03    1.0014189844e+05
    4.8383255489e-03    1.0015394531e+05
    4.8580355942e-03    1.0018314844e+05
    4.8777610064e-03    1.0023274219e+05
    4.8975008540e-03    1.0029187500e+05
    4.9172551371e-03    1.0035406250e+05
    4.9370229244e-03    1.0041674219e+05
    4.9568060786e-03    1.0047021094e+05
    4.9766036682e-03    1.0052678906e+05
    4.9964170903e-03    1.0057171094e+05
    5.0162458792e-03    1.0061256250e+05
    5.0360900350e-03    1.0064322656e+05
    5.0559476949e-03    1.0066452344e+05
    5.0758207217e-03    1.0067785156e+05
    5.0957072526e-03    1.0068421094e+05
    5.1156077534e-03    1.0067489844e+05
    5.1355226897e-03    1.0066427344e+05
    5.1554525271e-03    1.0065435156e+05
    5.1753963344e-03    1.0063362500e+05
    5.1953555085e-03    1.0061635156e+05
    5.2153295837e-03    1.0059903906e+05
    5.2353194915e-03    1.0058256250e+05
    5.2553247660e-03    1.0057682031e+05
    5.2753463387e-03    1.0057207031e+05
    5.2953832783e-03    1.0057038281e+05
    5.3154369816e-03    1.0057546875e+05
    5.3355065174e-03    1.0057910156e+05
    5.3555918857e-03    1.0059252344e+05
    5.3756926209e-03    1.0060163281e+05
    5.3958082572e-03    1.0061525781e+05
    5.4159392603e-03    1.0062825000e+05
    5.4360851645e-03    1.0063650781e+05
    5.4562464356e-03    1.0064783594e+05
    5.4764230736e-03    1.0065897656e+05
    5.4966160096e-03    1.0066468750e+05
    5.5168238468e-03    1.0066887500e+05
    5.5370470509e-03    1.0067205469e+05
    5.5572865531e-03    1.0066996094e+05
    5.5775423534e-03    1.0066731250e+05
    5.5978130549e-03    1.0066786719e+05
    5.6181000546e-03    1.0067418750e+05
    5.6384028867e-03    1.0067157031e+05
    5.6587206200e-03    1.0067500000e+05
    5.6790532544e-03    1.0067883594e+05
    5.6994007900e-03    1.0067957031e+05
    5.7197632268e-03    1.0068333594e+05
    5.7401410304e-03    1.0068609375e+05
    5.7605337352e-03    1.0068943750e+05
    5.7809422724e-03    1.0069375000e+05
    5.8013652451e-03    1.0069694531e+05
    5.8218040504e-03    1.0069917969e+05
    5.8422577567e-03    1.0070377344e+05
    5.8627268299e-03    1.0070622656e+05
    5.8832112700e-03    1.0071077344e+05
    5.9037101455e-03    1.0072067969e+05
    5.9242248535e-03    1.0072902344e+05
    5.9447535314e-03    1.0073032031e+05
    5.9641525149e-03    1.0073582031e+05
    5.9830932878e-03    1.0073960156e+05
    6.0020405799e-03    1.0074358594e+05
    6.0210367665e-03    1.0074817969e+05
    6.0400799848e-03    1.0076421094e+05
    6.0591096990e-03    1.0076949219e+05
    6.0781282373e-03    1.0077756250e+05
    6.0972142965e-03    1.0078034375e+05
    6.1162756756e-03    1.0078497656e+05
    6.1353649944e-03    1.0079115625e+05
    6.1544459313e-03    1.0079627344e+05
    6.1734300107e-03    1.0080956250e+05
    6.1924448237e-03    1.0081641406e+05
    6.2115197070e-03    1.0083037500e+05
    6.2306127511e-03    1.0083778906e+05
    6.2497169711e-03    1.0085253906e+05
    6.2688281760e-03    1.0087203906e+05
    6.2879407778e-03    1.0091272656e+05
    6.3070552424e-03    1.0098693750e+05
    6.3261794858e-03    1.0113457031e+05
    6.3453060575e-03    1.0144459375e+05
    6.3644465990e-03    1.0207260156e+05
    6.3835908659e-03    1.0331974219e+05
    6.4027444459e-03    1.0569122656e+05
    6.4219115302e-03    1.0983859375e+05
    6.4410855994e-03    1.1636533594e+05
    6.4602680504e-03    1.2542675000e+05
    6.4794607460e-03    1.3638246875e+05
    6.4986641519e-03    1.4773245312e+05
    6.5178787336e-03    1.5762957812e+05
    6.5371058881e-03    1.6473367188e+05
    6.5563363023e-03    1.6865670312e+05
    6.5755699761e-03    1.6985164062e+05
    6.5948092379e-03    1.6925676562e+05
    6.6140629351e-03    1.6776612500e+05
    6.6333152354e-03    1.6612398438e+05
    6.6525745206e-03    1.6467793750e+05
    6.6718445159e-03    1.6344553125e+05
    6.6911154427e-03    1.6228020312e+05
    6.7104012705e-03    1.6102996875e+05
    6.7296870984e-03    1.5959334375e+05
    6.7489854991e-03    1.5794787500e+05
    6.7682852969e-03    1.5615346875e+05
    6.7875892855e-03    1.5428554688e+05
    6.8069072440e-03    1.5243700000e+05
    6.8262196146e-03    1.5066853125e+05
    6.8455408327e-03    1.4900421875e+05
    6.8648783490e-03    1.4743384375e+05
    6.8842126057e-03    1.4593718750e+05
    6.9035501219e-03    1.4448235938e+05
    6.9228983484e-03    1.4306023438e+05
    6.9422605447e-03    1.4164612500e+05
    6.9616222754e-03    1.4027375000e+05
    6.9809844717e-03    1.3894662500e+05
    7.0003494620e-03    1.3768548438e+05
    7.0197195746e-03    1.3649487500e+05
    7.0390999317e-03    1.3538639062e+05
    7.0584909990e-03    1.3435248438e+05
    7.0778946392e-03    1.3338159375e+05
    7.0973108523e-03    1.3247064062e+05
    7.1167377755e-03    1.3161131250e+05
    7.1361698210e-03    1.3080099219e+05
    7.1556069888e-03    1.3004003906e+05
    7.1750483476e-03    1.2931499219e+05
    7.1944966912e-03    1.2863472656e+05
    7.2139529511e-03    1.2798578125e+05
    7.2334166616e-03    1.2736509375e+05
    7.2528840974e-03    1.2677903125e+05
    7.2723543271e-03    1.2621353906e+05
    7.2918278165e-03    1.2566357031e+05
    7.3113050312e-03    1.2512687500e+05
    7.3307845742e-03    1.2459203906e+05
    7.3502692394e-03    1.2407133594e+05
    7.3697618209e-03    1.2356505469e+05
    7.3892641813e-03    1.2307653125e+05
    7.4087800458e-03    1.2261263281e+05
    7.4282912537e-03    1.2217224219e+05
    7.4477996677e-03    1.2176391406e+05
    7.4673094787e-03    1.2138396094e+05
    7.4868267402e-03    1.2103314844e+05
    7.5063589029e-03    1.2070790625e+05
    7.5258887373e-03    1.2040452344e+05
    7.5454111211e-03    1.2012521875e+05
    7.5649353676e-03    1.1986913281e+05
    7.5844703242e-03    1.1962841406e+05
    7.6040057465e-03    1.1941297656e+05
    7.6235276647e-03    1.1920768750e+05
    7.6430505142e-03    1.1901764844e+05
    7.6625877991e-03    1.1884102344e+05
    7.6821087860e-03    1.1867828906e+05
    7.7016241848e-03    1.1852096094e+05
    7.7211544849e-03    1.1836725781e+05
    7.7406810597e-03    1.1821828125e+05
    7.7602043748e-03    1.1807002344e+05
    7.7797495760e-03    1.1792224219e+05
    7.7992938459e-03    1.1776875781e+05
    7.8188432381e-03    1.1762116406e+05
    7.8384252265e-03    1.1747977344e+05
    7.8580006957e-03    1.1733132031e+05
    7.8775910661e-03    1.1717492969e+05
    7.8972103074e-03    1.1701244531e+05
    7.9168286175e-03    1.1684878906e+05
    7.9364804551e-03    1.1667828906e+05
    7.9561360180e-03    1.1650928906e+05
    7.9758102074e-03    1.1633730469e+05
    7.9955114052e-03    1.1616062500e+05
    8.0152126029e-03    1.1599585156e+05
    8.0349491909e-03    1.1582466406e+05
    8.0546662211e-03    1.1566212500e+05
    8.0743944272e-03    1.1550709375e+05
    8.0941170454e-03    1.1535571875e+05
    8.1138620153e-03    1.1521397656e+05
    8.1336386502e-03    1.1507940625e+05
    8.1534720957e-03    1.1494980469e+05
    8.1733558327e-03    1.1483267969e+05
    8.1932730973e-03    1.1471460156e+05
    8.2132071257e-03    1.1460796875e+05
    8.2330890000e-03    1.1449591406e+05
    8.2529615611e-03    1.1438310156e+05
    8.2727763802e-03    1.1426394531e+05
    8.2926023751e-03    1.1414321875e+05
    8.3124246448e-03    1.1401946094e+05
    8.3322748542e-03    1.1389041406e+05
    8.3521194756e-03    1.1376363281e+05
    8.3719678223e-03    1.1363383594e+05
    8.3917891607e-03    1.1350121875e+05
    8.4116021171e-03    1.1337696875e+05
    8.4314141423e-03    1.1325491406e+05
    8.4512168542e-03    1.1313611719e+05
    8.4710381925e-03    1.1302311719e+05
    8.4908353165e-03    1.1292071094e+05
    8.5106678307e-03    1.1282552344e+05
    8.5304882377e-03    1.1273834375e+05
    8.5503393784e-03    1.1266352344e+05
    8.5699046031e-03    1.1259628125e+05
    8.5892248899e-03    1.1254969531e+05
    8.6083402857e-03    1.1250533594e+05
    8.6272666231e-03    1.1246872656e+05
    8.6460309103e-03    1.1244383594e+05
    8.6646731943e-03    1.1241982031e+05
    8.6832325906e-03    1.1240339844e+05
    8.7017398328e-03    1.1237810156e+05
    8.7202098221e-03    1.1236050000e+05
    8.7386453524e-03    1.1233416406e+05
    8.7570473552e-03    1.1230702344e+05
    8.7753897533e-03    1.1228521875e+05
    8.7936492637e-03    1.1225872656e+05
    8.8118780404e-03    1.1222746094e+05
    8.8300397620e-03    1.1220024219e+05
    8.8481390849e-03    1.1215653906e+05
    8.8662039489e-03    1.1211750000e+05
    8.8842641562e-03    1.1206914844e+05
    8.9023411274e-03    1.1202347656e+05
    8.9204348624e-03    1.1196958594e+05
    8.9385388419e-03    1.1191139844e+05
    8.9566456154e-03    1.1184477344e+05
    8.9747514576e-03    1.1177637500e+05
    8.9928600937e-03    1.1169221094e+05
    9.0109808370e-03    1.1160081250e+05
    9.0291155502e-03    1.1149444531e+05
    9.0472688898e-03    1.1138271094e+05
    9.0654399246e-03    1.1125696094e+05
    9.0836230665e-03    1.1112458594e+05
    9.1018192470e-03    1.1098327344e+05
    9.1200266033e-03    1.1083369531e+05
    9.1382460669e-03    1.1066967969e+05
    9.1564757749e-03    1.1050171094e+05
    9.1747231781e-03    1.1032608594e+05
    9.1929892078e-03    1.1015063281e+05
    9.2112747952e-03    1.0998089844e+05
    9.2295790091e-03    1.0981441406e+05
    9.2479009181e-03    1.0966042969e+05
    9.2662386596e-03    1.0951567969e+05
    9.2845931649e-03    1.0938189844e+05
    9.3029672280e-03    1.0926103906e+05
    9.3213599175e-03    1.0915378906e+05
    9.3397712335e-03    1.0905869531e+05
    9.3582011759e-03    1.0897460156e+05
    9.3766497448e-03    1.0890341406e+05
    9.3951150775e-03    1.0884483594e+05
    9.4135999680e-03    1.0879817969e+05
    9.4321016222e-03    1.0876061719e+05
    9.4506228343e-03    1.0872953125e+05
    9.4691645354e-03    1.0870674219e+05
    9.4877239317e-03    1.0868496875e+05
    9.5063010231e-03    1.0866921875e+05
    9.5248948783e-03    1.0865836719e+05
    9.5435054973e-03    1.0865675781e+05
    9.5621328801e-03    1.0865109375e+05
    9.5807760954e-03    1.0865307031e+05
    9.5994332805e-03    1.0864878906e+05
    9.6181081608e-03    1.0864453125e+05
    9.6367979422e-03    1.0863359375e+05
    9.6555035561e-03    1.0862521875e+05
    9.6742231399e-03    1.0861052344e+05
    9.6929576248e-03    1.0858344531e+05
    9.7117051482e-03    1.0855735156e+05
    9.7304685041e-03    1.0852324219e+05
    9.7492448986e-03    1.0848499219e+05
    9.7680361941e-03    1.0843989844e+05
    9.7868405282e-03    1.0838422656e+05
    9.8056588322e-03    1.0832450781e+05
    9.8244920373e-03    1.0826078125e+05
    9.8433364183e-03    1.0819021094e+05
    9.8621929064e-03    1.0812033594e+05
    9.8810633644e-03    1.0804584375e+05
    9.8999459296e-03    1.0796741406e+05
    9.9188406020e-03    1.0789756250e+05
    9.9377483130e-03    1.0782881250e+05
    9.9566690624e-03    1.0775932031e+05
    9.9756028503e-03    1.0769682031e+05
    9.9945487455e-03    1.0764100781e+05
    1.0013507679e-02    1.0759202344e+05
    1.0032479651e-02    1.0754264844e+05
    1.0051463731e-02    1.0749925000e+05
    1.0070459917e-02    1.0746069531e+05
    1.0089469142e-02    1.0742017969e+05
    1.0108492337e-02    1.0739750000e+05
    1.0127528571e-02    1.0737258594e+05
    1.0146577843e-02    1.0735103906e+05
    1.0165639222e-02    1.0733157031e+05
    1.0184712708e-02    1.0731600781e+05
    1.0203798302e-02    1.0729519531e+05
    1.0222896002e-02    1.0727342969e+05
    1.0242006741e-02    1.0724953125e+05
    1.0261129588e-02    1.0721614844e+05
    1.0280264542e-02    1.0718093750e+05
    1.0299413465e-02    1.0714146094e+05
    1.0318575427e-02    1.0709384375e+05
    1.0337748565e-02    1.0703410156e+05
    1.0356934741e-02    1.0697006250e+05
    1.0376133956e-02    1.0689900000e+05
    1.0395346209e-02    1.0681155469e+05
    1.0414571501e-02    1.0672877344e+05
    1.0433809832e-02    1.0663996875e+05
    1.0453061201e-02    1.0655071875e+05
    1.0472324677e-02    1.0645749219e+05
    1.0491601191e-02    1.0636328906e+05
    1.0510892607e-02    1.0627207031e+05
    1.0530196130e-02    1.0618056250e+05
    1.0549513623e-02    1.0608946094e+05
    1.0568842292e-02    1.0599888281e+05
    1.0588183999e-02    1.0590753125e+05
    1.0607538745e-02    1.0580860156e+05
    1.0626907460e-02    1.0570799219e+05
    1.0646289214e-02    1.0560896094e+05
    1.0665684007e-02    1.0549882031e+05
    1.0685092770e-02    1.0538458594e+05
    1.0704516433e-02    1.0526785156e+05
    1.0723951273e-02    1.0515041406e+05
    1.0743400082e-02    1.0503172656e+05
    1.0762862861e-02    1.0492039844e+05
    1.0782338679e-02    1.0481286719e+05
    1.0801829398e-02    1.0472064844e+05
    1.0821334086e-02    1.0463441406e+05
    1.0840852745e-02    1.0456272656e+05
    1.0860386305e-02    1.0449667969e+05
    1.0879932903e-02    1.0445380469e+05
    1.0899493471e-02    1.0442021094e+05
    1.0919069871e-02    1.0439085156e+05
    1.0938662104e-02    1.0437511719e+05
    1.0958270170e-02    1.0435633594e+05
    1.0977892205e-02    1.0433788281e+05
    1.0997531936e-02    1.0432074219e+05
    1.1017187499e-02    1.0429978906e+05
    1.1036860757e-02    1.0427633594e+05
    1.1056551710e-02    1.0424291406e+05
    1.1076259427e-02    1.0420178906e+05
    1.1095987633e-02    1.0415433594e+05
    1.1115733534e-02    1.0411037500e+05
    1.1135498993e-02    1.0405818750e+05
    1.1155283079e-02    1.0400871094e+05
    1.1175086722e-02    1.0396271875e+05
    1.1194912717e-02    1.0392024219e+05
    1.1214758269e-02    1.0387921875e+05
    1.1234625243e-02    1.0384790625e+05
    1.1254511774e-02    1.0381358594e+05
    1.1274418794e-02    1.0378403906e+05
    1.1294347234e-02    1.0374734375e+05
    1.1314296164e-02    1.0371902344e+05
    1.1334266514e-02    1.0368203125e+05
    1.1354257353e-02    1.0364902344e+05
    1.1374268681e-02    1.0360677344e+05
    1.1394302361e-02    1.0355799219e+05
    1.1414355598e-02    1.0350488281e+05
    1.1434430256e-02    1.0344335156e+05
    1.1454525404e-02    1.0337802344e+05
    1.1474640109e-02    1.0331653906e+05
    1.1494777165e-02    1.0325478906e+05
    1.1514934711e-02    1.0318725000e+05
    1.1535113677e-02    1.0312878906e+05
    1.1555313133e-02    1.0307547656e+05
    1.1575534008e-02    1.0302385156e+05
    1.1595774442e-02    1.0297675781e+05
    1.1616035365e-02    1.0293503906e+05
    1.1636316776e-02    1.0289503125e+05
    1.1656619608e-02    1.0285191406e+05
    1.1676942930e-02    1.0281850781e+05
    1.1697287671e-02    1.0278702344e+05
    1.1717652902e-02    1.0275630469e+05
    1.1738038622e-02    1.0272608594e+05
    1.1758443899e-02    1.0268750000e+05
    1.1778870597e-02    1.0265315625e+05
    1.1799318716e-02    1.0261928906e+05
    1.1819788255e-02    1.0258646094e+05
    1.1840280145e-02    1.0255352344e+05
    1.1860790662e-02    1.0251789844e+05
    1.1881321669e-02    1.0248685156e+05
    1.1901874095e-02    1.0246027344e+05
    1.1922447011e-02    1.0243442969e+05
    1.1943042278e-02    1.0241590625e+05
    1.1963658035e-02    1.0240402344e+05
    1.1984295212e-02    1.0240971094e+05
    1.2004952878e-02    1.0242805469e+05
    1.2025631964e-02    1.0247171875e+05
    1.2046331540e-02    1.0255178906e+05
    1.2067052536e-02    1.0267171875e+05
    1.2087795883e-02    1.0286875000e+05
    1.2108558789e-02    1.0314360156e+05
    1.2129344046e-02    1.0353742969e+05
    1.2150149792e-02    1.0406247656e+05
    1.2170976959e-02    1.0472741406e+05
    1.2191825546e-02    1.0555402344e+05
    1.2212695554e-02    1.0652338281e+05
    1.2233586982e-02    1.0760877344e+05
    1.2254500762e-02    1.0874375000e+05
    1.2275436893e-02    1.0986122656e+05
    1.2296394445e-02    1.1087112500e+05
    1.2317374349e-02    1.1169322656e+05
    1.2338375673e-02    1.1226007031e+05
    1.2359398417e-02    1.1254438281e+05
    1.2380442582e-02    1.1253843750e+05
    1.2401508167e-02    1.1227247656e+05
    1.2422595173e-02    1.1178747656e+05
    1.2443703599e-02    1.1113375781e+05
    1.2464834377e-02    1.1036925000e+05
    1.2485986575e-02    1.0955678906e+05
    1.2507158332e-02    1.0875266406e+05
    1.2528351508e-02    1.0800553125e+05
    1.2549565174e-02    1.0735341406e+05
    1.2570801191e-02    1.0681622656e+05
    1.2592058629e-02    1.0638702344e+05
    1.2613337487e-02    1.0603282031e+05
    1.2634636834e-02    1.0571283594e+05
    1.2655957602e-02    1.0539478906e+05
    1.2677297927e-02    1.0505047656e+05
    1.2698660605e-02    1.0465449219e+05
    1.2720043771e-02    1.0422291406e+05
    1.2741449289e-02    1.0374844531e+05
    1.2762876227e-02    1.0324461719e+05
    1.2784325518e-02    1.0274597656e+05
    1.2805794366e-02    1.0225530469e+05
    1.2827285565e-02    1.0181055469e+05
    1.2848797254e-02    1.0142264844e+05
    1.2870330364e-02    1.0110214844e+05
    1.2891885825e-02    1.0085363281e+05
    1.2913462706e-02    1.0065865625e+05
    1.2935061008e-02    1.0051550000e+05
    1.2956679799e-02    1.0040575000e+05
    1.2978320010e-02    1.0031892969e+05
    1.2999981642e-02    1.0025003906e+05
    1.3021663763e-02    1.0019682031e+05
    1.3043368235e-02    1.0014571094e+05
    1.3065092266e-02    1.0010208594e+05
    1.3086837716e-02    1.0006467969e+05
    1.3108605519e-02    1.0003340625e+05
    1.3130392879e-02    1.0001565625e+05
    1.3152201660e-02    1.0001456250e+05
    1.3174032792e-02    1.0002988281e+05
    1.3195885345e-02    1.0005796875e+05
    1.3217759319e-02    1.0009075781e+05
    1.3239653781e-02    1.0012382031e+05
    1.3261569664e-02    1.0015064844e+05
    1.3283506967e-02    1.0016503906e+05
    1.3305463828e-02    1.0016721094e+05
    1.3327440247e-02    1.0015442969e+05
    1.3349435292e-02    1.0012907031e+05
    1.3371448033e-02    1.0008705469e+05
    1.3393475674e-02    1.0004911719e+05
    1.3415516354e-02    1.0002103906e+05
    1.3437564485e-02    1.0001421094e+05
    1.3459613547e-02    1.0003562500e+05
    1.3481658883e-02    1.0008266406e+05
    1.3503690250e-02    1.0016109375e+05
    1.3525702059e-02    1.0025534375e+05
    1.3547683135e-02    1.0036103906e+05
    1.3569628820e-02    1.0045902344e+05
    1.3591531664e-02    1.0054012500e+05
    1.3613392599e-02    1.0060324219e+05
    1.3635210693e-02    1.0064347656e+05
    1.3656994328e-02    1.0067030469e+05
    1.3678749092e-02    1.0067682031e+05
    1.3700488023e-02    1.0067550000e+05
    1.3722228818e-02    1.0067893750e+05
    1.3743981719e-02    1.0067992969e+05
    1.3765762560e-02    1.0069086719e+05
    1.3787578791e-02    1.0071022656e+05
    1.3809437864e-02    1.0074177344e+05
    1.3831341639e-02    1.0077603906e+05
    1.3853288256e-02    1.0081871875e+05
    1.3875273056e-02    1.0085247656e+05
    1.3897285797e-02    1.0089096875e+05
    1.3919321820e-02    1.0092091406e+05
    1.3941374607e-02    1.0093743750e+05
    1.3963440433e-02    1.0095108594e+05
    1.3985517435e-02    1.0095924219e+05
    1.4007603750e-02    1.0095928125e+05
    1.4029704034e-02    1.0095696875e+05
    1.4051820152e-02    1.0095675000e+05
    1.4073957689e-02    1.0095615625e+05
    1.4096121304e-02    1.0095471094e+05
    1.4118315652e-02    1.0095141406e+05
    1.4140545391e-02    1.0095200781e+05
    1.4162814245e-02    1.0095800000e+05
    1.4185124077e-02    1.0095880469e+05
    1.4207473956e-02    1.0096852344e+05
    1.4229862019e-02    1.0096877344e+05
    1.4252286404e-02    1.0096316406e+05
    1.4274741523e-02    1.0095778906e+05
    1.4297228307e-02    1.0094894531e+05
    1.4319745824e-02    1.0093741406e+05
    1.4342290349e-02    1.0092082031e+05
    1.4364863746e-02    1.0090360156e+05
    1.4387467876e-02    1.0088563281e+05
    1.4410103671e-02    1.0087040625e+05
    1.4432771131e-02    1.0085269531e+05
    1.4455472119e-02    1.0083013281e+05
    1.4478209428e-02    1.0081171094e+05
    1.4500979334e-02    1.0078687500e+05
    1.4523783699e-02    1.0076574219e+05
    1.4546621591e-02    1.0074421094e+05
    1.4569494873e-02    1.0072017969e+05
    1.4592399821e-02    1.0068742969e+05
    1.4615339227e-02    1.0066313281e+05
    1.4638305642e-02    1.0063560156e+05
    1.4661304653e-02    1.0061077344e+05
    1.4684336260e-02    1.0058288281e+05
    1.4707398601e-02    1.0056403906e+05
    1.4730494469e-02    1.0053614844e+05
    1.4753622934e-02    1.0050899219e+05
    1.4776783995e-02    1.0048064844e+05
    1.4799979515e-02    1.0046021094e+05
    1.4823205769e-02    1.0043522656e+05
    1.4846466482e-02    1.0040818750e+05
    1.4869757928e-02    1.0037619531e+05
    1.4893081971e-02    1.0035228906e+05
    1.4916437678e-02    1.0031846094e+05
    1.4939822257e-02    1.0028618750e+05
    1.4963239431e-02    1.0025802344e+05
    1.4986685477e-02    1.0022853125e+05
    1.5010161325e-02    1.0019546875e+05
    1.5033668838e-02    1.0016942969e+05
    1.5057205223e-02    1.0013409375e+05
    1.5080772340e-02    1.0010699219e+05
    1.5104367398e-02    1.0007200781e+05
    1.5127992257e-02    1.0004730469e+05
    1.5151646920e-02    1.0001586719e+05
    1.5175330453e-02    9.9985523438e+04
    1.5199041925e-02    9.9959351562e+04
    1.5222782269e-02    9.9925937500e+04
    1.5246548690e-02    9.9890601562e+04
    1.5270343982e-02    9.9851562500e+04
    1.5294168144e-02    9.9818132812e+04
    1.5318016522e-02    9.9782007812e+04
    1.5341891907e-02    9.9751085938e+04
    1.5365792438e-02    9.9725773438e+04
    1.5389721841e-02    9.9695820312e+04
    1.5413676389e-02    9.9673898438e+04
    1.5437657945e-02    9.9650625000e+04
    1.5461664647e-02    9.9629031250e+04
    1.5485695563e-02    9.9621773438e+04
    1.5509752557e-02    9.9617789062e+04
    1.5533835627e-02    9.9622187500e+04
    1.5557944775e-02    9.9636343750e+04
    1.5582079068e-02    9.9649289062e+04
    1.5606240369e-02    9.9668093750e+04
    1.5630424023e-02    9.9690843750e+04
    1.5654634684e-02    9.9719187500e+04
    1.5678871423e-02    9.9751898438e+04
    1.5703132376e-02    9.9780726562e+04
    1.5727419406e-02    9.9808414062e+04
    1.5751728788e-02    9.9832445312e+04
    1.5776060522e-02    9.9847742188e+04
    1.5800418332e-02    9.9861156250e+04
    1.5824800357e-02    9.9864914062e+04
    1.5849204734e-02    9.9863726562e+04
    1.5873633325e-02    9.9852289062e+04
    1.5898084268e-02    9.9844812500e+04
    1.5922557563e-02    9.9827437500e+04
    1.5947058797e-02    9.9811320312e+04
    1.5971582383e-02    9.9795367188e+04
    1.5996130183e-02    9.9788351562e+04
    1.6020702198e-02    9.9790242188e+04
    1.6045298427e-02    9.9808156250e+04
    1.6069920734e-02    9.9843000000e+04
    1.6094569117e-02    9.9896375000e+04
    1.6119243577e-02    9.9958492188e+04
    1.6143942252e-02    1.0003566406e+05
    1.6168667004e-02    1.0011939844e+05
    1.6193419695e-02    1.0021853125e+05
    1.6218200326e-02    1.0032564844e+05
    1.6243007034e-02    1.0043853125e+05
    1.6267839819e-02    1.0055532031e+05
    1.6292702407e-02    1.0067421094e+05
    1.6317596659e-02    1.0079552344e+05
    1.6342513263e-02    1.0091203125e+05
    1.6367461532e-02    1.0102675000e+05
    1.6392435879e-02    1.0113842969e+05
    1.6417443752e-02    1.0125297656e+05
    1.6442479566e-02    1.0135613281e+05
    1.6467543319e-02    1.0145711719e+05
    1.6492636874e-02    1.0155121094e+05
    1.6517756507e-02    1.0163884375e+05
    1.6542907804e-02    1.0172003125e+05
    1.6568088904e-02    1.0179128125e+05
    1.6593271866e-02    1.0185283594e+05
    1.6618426889e-02    1.0190239844e+05
    1.6643559560e-02    1.0195186719e+05
    1.6668669879e-02    1.0198299219e+05
    1.6693757847e-02    1.0200564844e+05
    1.6718825325e-02    1.0202586719e+05
    1.6743874177e-02    1.0203806250e+05
    1.6768900678e-02    1.0204388281e+05
    1.6793908551e-02    1.0205372656e+05
    1.6818899661e-02    1.0205460156e+05
    1.6843874007e-02    1.0205632031e+05
    1.6868829727e-02    1.0205637500e+05
    1.6893770546e-02    1.0206413281e+05
    1.6918692738e-02    1.0207100781e+05
    1.6943598166e-02    1.0208168750e+05
    1.6968490556e-02    1.0209277344e+05
    1.6993366182e-02    1.0210692969e+05
    1.7018226907e-02    1.0213286719e+05
    1.7043072730e-02    1.0215497656e+05
    1.7067901790e-02    1.0217783594e+05
    1.7092714086e-02    1.0219902344e+05
    1.7117511481e-02    1.0222396875e+05
    1.7142292112e-02    1.0224115625e+05
    1.7167057842e-02    1.0225800781e+05
    1.7191808671e-02    1.0226262500e+05
    1.7216544598e-02    1.0227399219e+05
    1.7241263762e-02    1.0227675000e+05
    1.7265968025e-02    1.0228247656e+05
    1.7290659249e-02    1.0229055469e+05
    1.7315333709e-02    1.0228850781e+05
    1.7339993268e-02    1.0227946094e+05
    1.7364639789e-02    1.0227342969e+05
    1.7389267683e-02    1.0225860156e+05
    1.7413880676e-02    1.0224978125e+05
    1.7438478768e-02    1.0222771875e+05
    1.7463061959e-02    1.0220928906e+05
    1.7487626523e-02    1.0218312500e+05
    1.7512176186e-02    1.0216333594e+05
    1.7536709085e-02    1.0214214844e+05
    1.7561223358e-02    1.0211917969e+05
    1.7585720867e-02    1.0210041406e+05
    1.7610201612e-02    1.0207557031e+05
    1.7634663731e-02    1.0205405469e+05
    1.7659107223e-02    1.0203239844e+05
    1.7683532089e-02    1.0202081250e+05
    1.7707940191e-02    1.0200978906e+05
    1.7732329667e-02    1.0200006250e+05
    1.7756698653e-02    1.0199508594e+05
    1.7781050876e-02    1.0199377344e+05
    1.7805384472e-02    1.0199814844e+05
    1.7829699442e-02    1.0199582031e+05
    1.7853999510e-02    1.0200152344e+05
    1.7878280953e-02    1.0200710156e+05
    1.7902545631e-02    1.0202736719e+05
    1.7926793545e-02    1.0205350781e+05
    1.7951028422e-02    1.0209375000e+05
    1.7975246534e-02    1.0213997656e+05
    1.7999447882e-02    1.0220122656e+05
    1.8023636192e-02    1.0227914844e+05
    1.8047811463e-02    1.0236928125e+05
    1.8071975559e-02    1.0248300781e+05
    1.8096126616e-02    1.0261034375e+05
    1.8120266497e-02    1.0273903125e+05
    1.8144397065e-02    1.0286546094e+05
    1.8168520182e-02    1.0298571094e+05
    1.8192630261e-02    1.0310266406e+05
    1.8216732889e-02    1.0319990625e+05
    1.8240824342e-02    1.0326842969e+05
    1.8264908344e-02    1.0330997656e+05
    1.8288983032e-02    1.0331597656e+05
    1.8313048407e-02    1.0327390625e+05
    1.8337102607e-02    1.0319659375e+05
    1.8361147493e-02    1.0308521094e+05
    1.8385183066e-02    1.0292567969e+05
    1.8409207463e-02    1.0273352344e+05
    1.8433224410e-02    1.0249689844e+05
    1.8457230181e-02    1.0225175781e+05
    1.8481226638e-02    1.0199833594e+05
    1.8505210057e-02    1.0174906250e+05
    1.8529184163e-02    1.0151019531e+05
    1.8553148955e-02    1.0129027344e+05
    1.8577100709e-02    1.0109118750e+05
    1.8601041287e-02    1.0092211719e+05
    1.8624972552e-02    1.0079028125e+05
    1.8648892641e-02    1.0069019531e+05
    1.8672801554e-02    1.0062859375e+05
    1.8696699291e-02    1.0058928125e+05
    1.8720587716e-02    1.0057238281e+05
    1.8744463101e-02    1.0056803906e+05
    1.8768329173e-02    1.0057784375e+05
    1.8792184070e-02    1.0059899219e+05
    1.8816027790e-02    1.0063492969e+05
    1.8839860335e-02    1.0068781250e+05
    1.8863683566e-02    1.0074638281e+05
    1.8887493759e-02    1.0081571094e+05
    1.8911294639e-02    1.0088819531e+05
    1.8935086206e-02    1.0096415625e+05
    1.8958866596e-02    1.0103950781e+05
    1.8982635811e-02    1.0111546875e+05
    1.9006397575e-02    1.0119339844e+05
    1.9030146301e-02    1.0126050000e+05
    1.9053885713e-02    1.0132710156e+05
    1.9077615812e-02    1.0138294531e+05
    1.9101334736e-02    1.0143161719e+05
    1.9125042483e-02    1.0148040625e+05
    1.9148740917e-02    1.0152108594e+05
    1.9172428176e-02    1.0156222656e+05
    1.9196104258e-02    1.0160513281e+05
    1.9219771028e-02    1.0165377344e+05
    1.9243424758e-02    1.0170207031e+05
    1.9267069176e-02    1.0175592969e+05
    1.9290700555e-02    1.0180917969e+05
    1.9314322621e-02    1.0186414844e+05
    1.9337931648e-02    1.0192560156e+05
    1.9361529499e-02    1.0197889844e+05
    1.9385114312e-02    1.0202784375e+05
    1.9408687949e-02    1.0207186719e+05
    1.9432250410e-02    1.0211616406e+05
    1.9455801696e-02    1.0216056250e+05
    1.9479339942e-02    1.0220421094e+05
    1.9502865151e-02    1.0223753906e+05
    1.9526379183e-02    1.0226425781e+05
    1.9549878314e-02    1.0229121875e+05
    1.9573366269e-02    1.0231997656e+05
    1.9596841186e-02    1.0234721094e+05
    1.9620303065e-02    1.0236980469e+05
    1.9643751904e-02    1.0238702344e+05
    1.9667187706e-02    1.0239964844e+05
    1.9690606743e-02    1.0241002344e+05
    1.9714014605e-02    1.0242281250e+05
    1.9737409428e-02    1.0242777344e+05
    1.9760791212e-02    1.0243153906e+05
    1.9784159958e-02    1.0242810156e+05
    1.9807513803e-02    1.0242537500e+05
    1.9830854610e-02    1.0241665625e+05
    1.9854182377e-02    1.0241025000e+05
    1.9877497107e-02    1.0239884375e+05
    1.9900798798e-02    1.0239108594e+05
    1.9924087450e-02    1.0237841406e+05
    1.9947361201e-02    1.0236971875e+05
    1.9970623776e-02    1.0235385156e+05
    1.9993871450e-02    1.0234700000e+05
    2.0017107949e-02    1.0233778125e+05
    2.0040329546e-02    1.0232915625e+05
    2.0063538104e-02    1.0231247656e+05
    2.0086731762e-02    1.0230103906e+05
    2.0109914243e-02    1.0228746094e+05
    2.0133081824e-02    1.0227407031e+05
    2.0156236365e-02    1.0226193750e+05
    2.0179376006e-02    1.0224703906e+05
    2.0202504471e-02    1.0223102344e+05
    2.0225618035e-02    1.0222338281e+05
    2.0248720422e-02    1.0221483594e+05
    2.0271807909e-02    1.0219828906e+05
    2.0294882357e-02    1.0218815625e+05
    2.0317947492e-02    1.0217356250e+05
    2.0340997726e-02    1.0215972656e+05
    2.0364036784e-02    1.0214066406e+05
    2.0387060940e-02    1.0212916406e+05
    2.0410073921e-02    1.0211813281e+05
    2.0433073863e-02    1.0210716406e+05
    2.0456060767e-02    1.0209763281e+05
    2.0479036495e-02    1.0208703906e+05
    2.0501999184e-02    1.0207699219e+05
    2.0524948835e-02    1.0206692969e+05
    2.0547885448e-02    1.0205241406e+05
    2.0570809022e-02    1.0203641406e+05
    2.0593719557e-02    1.0202827344e+05
    2.0616617054e-02    1.0202364844e+05
    2.0639499649e-02    1.0201233594e+05
    2.0662369207e-02    1.0199939844e+05
    2.0685223863e-02    1.0198662500e+05
    2.0708063617e-02    1.0197496875e+05
    2.0730890334e-02    1.0196321875e+05
    2.0753700286e-02    1.0195128906e+05
    2.0776495337e-02    1.0193919531e+05
    2.0799275488e-02    1.0192764844e+05
    2.0822042599e-02    1.0191736719e+05
    2.0844791085e-02    1.0190946094e+05
    2.0867524669e-02    1.0189657031e+05
    2.0890241489e-02    1.0188508594e+05
    2.0912945271e-02    1.0187725000e+05
    2.0935632288e-02    1.0186639844e+05
    2.0958306268e-02    1.0186471094e+05
    2.0980965346e-02    1.0185915625e+05
    2.1003607661e-02    1.0185994531e+05
    2.1026238799e-02    1.0185324219e+05
    2.1048855036e-02    1.0185039844e+05
    2.1071458235e-02    1.0185046094e+05
    2.1094048396e-02    1.0184466406e+05
    2.1116625518e-02    1.0183936719e+05
    2.1139191464e-02    1.0184339844e+05
    2.1161744371e-02    1.0183891406e+05
    2.1184286103e-02    1.0184396094e+05
    2.1206818521e-02    1.0183978906e+05
    2.1229337901e-02    1.0182585156e+05
    2.1251846105e-02    1.0181983594e+05
    2.1274344996e-02    1.0181594531e+05
    2.1296832711e-02    1.0180987500e+05
    2.1319312975e-02    1.0180860156e+05
    2.1341778338e-02    1.0180332031e+05
    2.1364232525e-02    1.0179257031e+05
    2.1386675537e-02    1.0178772656e+05
    2.1409107372e-02    1.0177253906e+05
    2.1431528032e-02    1.0176266406e+05
    2.1453931928e-02    1.0174921094e+05
    2.1476324648e-02    1.0175078125e+05
    2.1498700604e-02    1.0174241406e+05
    2.1521063522e-02    1.0173165625e+05
    2.1543409675e-02    1.0172061719e+05
    2.1565740928e-02    1.0171391406e+05
    2.1588053554e-02    1.0170697656e+05
    2.1610351279e-02    1.0169986719e+05
    2.1632634103e-02    1.0169269531e+05
    2.1654898301e-02    1.0168727344e+05
    2.1677147597e-02    1.0168975781e+05
    2.1699378267e-02    1.0168852344e+05
    2.1721594036e-02    1.0168478125e+05
    2.1743793041e-02    1.0168002344e+05
    2.1765975282e-02    1.0168166406e+05
    2.1788140759e-02    1.0168239844e+05
    2.1810289472e-02    1.0167980469e+05
    2.1832419559e-02    1.0167752344e+05
    2.1854531020e-02    1.0167386719e+05
    2.1876627579e-02    1.0168033594e+05
    2.1898705512e-02    1.0167889844e+05
    2.1920768544e-02    1.0168600781e+05
    2.1942811087e-02    1.0168593750e+05
    2.1964838728e-02    1.0167607031e+05
    2.1986849606e-02    1.0167706250e+05
    2.2008845583e-02    1.0168389844e+05
    2.2030822933e-02    1.0168189844e+05
    2.2052785382e-02    1.0168485156e+05
    2.2074732929e-02    1.0168588281e+05
    2.2096665576e-02    1.0168750000e+05
    2.2118583322e-02    1.0168210156e+05
    2.2140489891e-02    1.0168222656e+05
    2.2162377834e-02    1.0168344531e+05
    2.2184254602e-02    1.0168778125e+05
    2.2206118330e-02    1.0168785156e+05
    2.2227969021e-02    1.0168831250e+05
    2.2249806672e-02    1.0168885156e+05
    2.2271629423e-02    1.0168810156e+05
    2.2293440998e-02    1.0168716406e+05
    2.2315241396e-02    1.0168308594e+05
    2.2337028757e-02    1.0168278906e+05
    2.2358803079e-02    1.0168339844e+05
    2.2380566224e-02    1.0168216406e+05
    2.2402318195e-02    1.0167546094e+05
    2.2424057126e-02    1.0167375781e+05
    2.2445784882e-02    1.0167259375e+05
    2.2467501462e-02    1.0167209375e+05
    2.2489206865e-02    1.0167058594e+05
    2.2510899231e-02    1.0167246094e+05
    2.2532582283e-02    1.0167013281e+05
    2.2554252297e-02    1.0166461719e+05
    2.2575911134e-02    1.0165803125e+05
    2.2597560659e-02    1.0165583594e+05
    2.2619199008e-02    1.0165319531e+05
    2.2640828043e-02    1.0165263281e+05
    2.2662445903e-02    1.0166178906e+05
    2.2684050724e-02    1.0166110156e+05
    2.2705646232e-02    1.0166202344e+05
    2.2727232426e-02    1.0166367969e+05
    2.2748809308e-02    1.0166736719e+05
    2.2770375013e-02    1.0166659375e+05
    2.2791929543e-02    1.0167453906e+05
    2.2813472897e-02    1.0167528125e+05
    2.2835006937e-02    1.0167685156e+05
    2.2856531665e-02    1.0167833594e+05
    2.2878047079e-02    1.0168910156e+05
    2.2899549454e-02    1.0170102344e+05
    2.2921044379e-02    1.0170292969e+05
    2.2942528129e-02    1.0170653906e+05
    2.2964000702e-02    1.0170827344e+05
    2.2985465825e-02    1.0170471094e+05
    2.3006917909e-02    1.0171618750e+05
    2.3028360680e-02    1.0171885156e+05
    2.3049792275e-02    1.0172113281e+05
    2.3071214557e-02    1.0172562500e+05
    2.3092625663e-02    1.0172772656e+05
    2.3114029318e-02    1.0173182031e+05
    2.3135419935e-02    1.0172511719e+05
    2.3156799376e-02    1.0172686719e+05
    2.3178169504e-02    1.0171997656e+05
    2.3199530318e-02    1.0172072656e+05
    2.3220879957e-02    1.0172125000e+05
    2.3242218420e-02    1.0171821094e+05
    2.3263547570e-02    1.0171608594e+05
    2.3284865543e-02    1.0171146094e+05
    2.3306174204e-02    1.0171084375e+05
    2.3327469826e-02    1.0171128125e+05
    2.3348756135e-02    1.0170968750e+05
    2.3370031267e-02    1.0170430469e+05
    2.3391297087e-02    1.0169710156e+05
    2.3412553594e-02    1.0169294531e+05
    2.3433798924e-02    1.0168803906e+05
    2.3455033079e-02    1.0169025000e+05
    2.3476256058e-02    1.0168938281e+05
    2.3497469723e-02    1.0169246094e+05
    2.3518672213e-02    1.0169190625e+05
    2.3539865389e-02    1.0169616406e+05
    2.3561049253e-02    1.0170053906e+05
    2.3582221940e-02    1.0170042969e+05
    2.3603385314e-02    1.0169808594e+05
    2.3624535650e-02    1.0170744531e+05
    2.3645676672e-02    1.0170808594e+05
    2.3666808382e-02    1.0171042969e+05
    2.3687927052e-02    1.0172289844e+05
    2.3709038273e-02    1.0173191406e+05
    2.3730138317e-02    1.0174602344e+05
    2.3751227185e-02    1.0176225000e+05
    2.3772306740e-02    1.0177402344e+05
    2.3793375120e-02    1.0179114844e+05
    2.3814432323e-02    1.0180324219e+05
    2.3835480213e-02    1.0181855469e+05
    2.3856516927e-02    1.0184246094e+05
    2.3877544329e-02    1.0186200000e+05
    2.3898560554e-02    1.0188791406e+05
    2.3919565603e-02    1.0191166406e+05
    2.3940561339e-02    1.0193383594e+05
    2.3961545900e-02    1.0195175781e+05
    2.3982519284e-02    1.0196963281e+05
    2.4003483355e-02    1.0198178906e+05
    2.4024436250e-02    1.0199399219e+05
    2.4045377970e-02    1.0201191406e+05
    2.4066310376e-02    1.0202907031e+05
    2.4087233469e-02    1.0203796875e+05
    2.4108145386e-02    1.0204261719e+05
    2.4129044265e-02    1.0204282031e+05
    2.4149935693e-02    1.0205027344e+05
    2.4170814082e-02    1.0203878906e+05
    2.4191683158e-02    1.0203316406e+05
    2.4212542921e-02    1.0201589844e+05
    2.4233391508e-02    1.0199266406e+05
    2.4254228920e-02    1.0197113281e+05
    2.4275057018e-02    1.0195335156e+05
    2.4295873940e-02    1.0192861719e+05
    2.4316681549e-02    1.0189321094e+05
    2.4337477982e-02    1.0185528906e+05
    2.4358265102e-02    1.0181121875e+05
    2.4379042909e-02    1.0176510156e+05
    2.4399809539e-02    1.0171841406e+05
    2.4420566857e-02    1.0167965625e+05
    2.4441312999e-02    1.0163721094e+05
    2.4462047964e-02    1.0159616406e+05
    2.4482775480e-02    1.0155558594e+05
    2.4503491819e-02    1.0152261719e+05
    2.4524198845e-02    1.0149992969e+05
    2.4544894695e-02    1.0148897656e+05
    2.4565581232e-02    1.0148908594e+05
    2.4586258456e-02    1.0150214844e+05
    2.4606924504e-02    1.0152328906e+05
    2.4627581239e-02    1.0155108594e+05
    2.4648228660e-02    1.0158130469e+05
    2.4668866768e-02    1.0162421094e+05
    2.4689495564e-02    1.0166947656e+05
    2.4710113183e-02    1.0171235156e+05
    2.4730721489e-02    1.0176402344e+05
    2.4751318619e-02    1.0181886719e+05
    2.4771906435e-02    1.0186328906e+05
    2.4792486802e-02    1.0190960156e+05
    2.4813055992e-02    1.0195340625e+05
    2.4833614007e-02    1.0198725000e+05
    2.4854162708e-02    1.0202212500e+05
    2.4874702096e-02    1.0205887500e+05
    2.4895232171e-02    1.0208914844e+05
    2.4915752932e-02    1.0211407031e+05
    2.4936262518e-02    1.0213842969e+05
    2.4956764653e-02    1.0215991406e+05
    2.4977253750e-02    1.0217547656e+05
    2.4997735396e-02    1.0219187500e+05
    2.5018205866e-02    1.0220916406e+05
    2.5038668886e-02    1.0222464844e+05
    2.5059120730e-02    1.0224062500e+05
    2.5079563260e-02    1.0225333594e+05
    2.5099996477e-02    1.0226613281e+05
    2.5120420381e-02    1.0227334375e+05
    2.5140833110e-02    1.0228182031e+05
    2.5161236525e-02    1.0229405469e+05
    2.5181630626e-02    1.0230081250e+05
    2.5202017277e-02    1.0231133594e+05
    2.5222390890e-02    1.0231799219e+05
    2.5242757052e-02    1.0232021875e+05
    2.5263112038e-02    1.0232305469e+05
    2.5283459574e-02    1.0232571094e+05
    2.5303795934e-02    1.0231878125e+05
    2.5324124843e-02    1.0231609375e+05
    2.5344440714e-02    1.0230734375e+05
    2.5364749134e-02    1.0230047656e+05
    2.5385048240e-02    1.0229124219e+05
    2.5405339897e-02    1.0228311719e+05
    2.5425618514e-02    1.0227386719e+05
    2.5445887819e-02    1.0226005469e+05
    2.5466147810e-02    1.0225793750e+05
    2.5486400351e-02    1.0224612500e+05
    2.5506639853e-02    1.0223315625e+05
    2.5526873767e-02    1.0221971094e+05
    2.5547094643e-02    1.0220452344e+05
    2.5567308068e-02    1.0219950000e+05
    2.5587510318e-02    1.0219503906e+05
    2.5607703254e-02    1.0219043750e+05
    2.5627886876e-02    1.0218624219e+05
    2.5648061186e-02    1.0217252344e+05
    2.5668226182e-02    1.0216707031e+05
    2.5688380003e-02    1.0216143750e+05
    2.5708526373e-02    1.0214844531e+05
    2.5728661567e-02    1.0214137500e+05
    2.5748789310e-02    1.0213897656e+05
    2.5768904015e-02    1.0214186719e+05
    2.5789011270e-02    1.0213532031e+05
    2.5809109211e-02    1.0211961719e+05
    2.5829195976e-02    1.0211337500e+05
    2.5849273428e-02    1.0210578906e+05
    2.5869343430e-02    1.0209881250e+05
    2.5889402255e-02    1.0208837500e+05
    2.5909451768e-02    1.0208641406e+05
    2.5929493830e-02    1.0208110156e+05
    2.5949522853e-02    1.0207477344e+05
    2.5969544426e-02    1.0206846094e+05
    2.5989556685e-02    1.0206108594e+05
    2.6009559631e-02    1.0205544531e+05
    2.6029553264e-02    1.0204992969e+05
    2.6049537584e-02    1.0204758594e+05
    2.6069512591e-02    1.0204525000e+05
    2.6089478284e-02    1.0203439844e+05
    2.6109432802e-02    1.0203141406e+05
    2.6129379869e-02    1.0202937500e+05
    2.6149315760e-02    1.0202280469e+05
    2.6169244200e-02    1.0201810156e+05
    2.6189163327e-02    1.0201366406e+05
    2.6209073141e-02    1.0200916406e+05
    2.6228975505e-02    1.0201610156e+05
    2.6248866692e-02    1.0201319531e+05
    2.6268748567e-02    1.0201933594e+05
    2.6288621128e-02    1.0201643750e+05
    2.6308484375e-02    1.0201371094e+05
    2.6328338310e-02    1.0201122656e+05
    2.6348184794e-02    1.0201240625e+05
    2.6368021965e-02    1.0201383594e+05
    2.6387847960e-02    1.0201602344e+05
    2.6407664642e-02    1.0201465625e+05
    2.6427472010e-02    1.0201424219e+05
    2.6447271928e-02    1.0202222656e+05
    2.6467062533e-02    1.0202243750e+05
    2.6486843824e-02    1.0202089844e+05
    2.6506617665e-02    1.0201927344e+05
    2.6526380330e-02    1.0201877344e+05
    2.6546133682e-02    1.0201705469e+05
    2.6565877721e-02    1.0201647656e+05
    2.6585612446e-02    1.0201485156e+05
    2.6605339721e-02    1.0201549219e+05
    2.6625057682e-02    1.0201449219e+05
    2.6644766331e-02    1.0201699219e+05
    2.6664465666e-02    1.0201672656e+05
    2.6684155688e-02    1.0201642969e+05
    2.6703836396e-02    1.0201016406e+05
    2.6723509654e-02    1.0200888281e+05
    2.6743173599e-02    1.0200805469e+05
    2.6762828231e-02    1.0200668750e+05
    2.6782475412e-02    1.0200583594e+05
    2.6802113280e-02    1.0200515625e+05
    2.6821739972e-02    1.0200452344e+05
    2.6841359213e-02    1.0200387500e+05
    2.6860967278e-02    1.0200316406e+05
    2.6880569756e-02    1.0200607031e+05
    2.6900164783e-02    1.0200919531e+05
    2.6919748634e-02    1.0200914844e+05
    2.6939325035e-02    1.0201374219e+05
    2.6958892122e-02    1.0201518750e+05
    2.6978449896e-02    1.0201764844e+05
    2.6997998357e-02    1.0202528906e+05
    2.7017539367e-02    1.0203393750e+05
    2.7037071064e-02    1.0204043750e+05
    2.7056595311e-02    1.0204858594e+05
    2.7076110244e-02    1.0205999219e+05
    2.7095617726e-02    1.0206610156e+05
    2.7115115896e-02    1.0207139844e+05
    2.7134604752e-02    1.0207802344e+05
    2.7154086158e-02    1.0208496875e+05
    2.7173558250e-02    1.0209116406e+05
    2.7193021029e-02    1.0210312500e+05
    2.7212476358e-02    1.0211103906e+05
    2.7231922373e-02    1.0212794531e+05
    2.7251357213e-02    1.0213525781e+05
    2.7270786464e-02    1.0214246875e+05
    2.7290204540e-02    1.0214550781e+05
    2.7309613302e-02    1.0215075000e+05
    2.7329014614e-02    1.0215828906e+05
    2.7348404750e-02    1.0216589844e+05
    2.7367785573e-02    1.0217119531e+05
    2.7387158945e-02    1.0217171094e+05
    2.7406521142e-02    1.0217650000e+05
    2.7425874025e-02    1.0217860156e+05
    2.7445219457e-02    1.0218133594e+05
    2.7464553714e-02    1.0217405469e+05
    2.7483878657e-02    1.0217310156e+05
    2.7503194287e-02    1.0217332031e+05
    2.7522502467e-02    1.0217174219e+05
    2.7541799471e-02    1.0216091406e+05
    2.7561087161e-02    1.0215781250e+05
    2.7580365539e-02    1.0214938281e+05
    2.7599634603e-02    1.0213924219e+05
    2.7618894354e-02    1.0212947656e+05
    2.7638144791e-02    1.0211935156e+05
    2.7657385916e-02    1.0211313281e+05
    2.7676619589e-02    1.0210455469e+05
    2.7695843950e-02    1.0209286719e+05
    2.7715058997e-02    1.0208187500e+05
    2.7734262869e-02    1.0206906250e+05
    2.7753459290e-02    1.0206160156e+05
    2.7772648260e-02    1.0204937500e+05
    2.7791827917e-02    1.0204265625e+05
    2.7810998261e-02    1.0203955469e+05
    2.7830159292e-02    1.0203568750e+05
    2.7849311009e-02    1.0203475000e+05
    2.7868455276e-02    1.0203653906e+05
    2.7887590230e-02    1.0203552344e+05
    2.7906717733e-02    1.0203461719e+05
    2.7925835922e-02    1.0204475000e+05
    2.7944946662e-02    1.0204647656e+05
    2.7964048088e-02    1.0204893750e+05
    2.7983140200e-02    1.0206097656e+05
    2.8002224863e-02    1.0206600000e+05
    2.8021300212e-02    1.0208039844e+05
    2.8040368110e-02    1.0208633594e+05
    2.8059426695e-02    1.0209097656e+05
    2.8078475967e-02    1.0209660156e+05
    2.8097519651e-02    1.0210378906e+05
    2.8116554022e-02    1.0211137500e+05
    2.8135580942e-02    1.0211802344e+05
    2.8154598549e-02    1.0213013281e+05
    2.8173606843e-02    1.0212978906e+05
    2.8192607686e-02    1.0212922656e+05
    2.8211599216e-02    1.0213272656e+05
    2.8230583295e-02    1.0213610156e+05
    2.8249559924e-02    1.0213924219e+05
    2.8268527240e-02    1.0214096094e+05
    2.8287487105e-02    1.0214002344e+05
    2.8306435794e-02    1.0213859375e+05
    2.8325378895e-02    1.0213956250e+05
    2.8344312683e-02    1.0213425000e+05
    2.8363237157e-02    1.0213436719e+05
    2.8382156044e-02    1.0213427344e+05
    2.8401065618e-02    1.0213508594e+05
    2.8419965878e-02    1.0213011719e+05
    2.8438858688e-02    1.0212946094e+05
    2.8457742184e-02    1.0212627344e+05
    2.8476616368e-02    1.0212771094e+05
    2.8495483100e-02    1.0212314844e+05
    2.8514338657e-02    1.0212337500e+05
    2.8533160686e-02    1.0213291406e+05
    2.8551930562e-02    1.0213514844e+05
    2.8570635244e-02    1.0213171094e+05
    2.8589271009e-02    1.0213357031e+05
    2.8607837856e-02    1.0214019531e+05
    2.8626350686e-02    1.0214122656e+05
    2.8644818813e-02    1.0214364844e+05
    2.8663259000e-02    1.0214496875e+05
    2.8681686148e-02    1.0214759375e+05
    2.8700113297e-02    1.0214914844e+05
    2.8718546033e-02    1.0215197656e+05
    2.8736986220e-02    1.0215331250e+05
    2.8755431995e-02    1.0215658594e+05
    2.8773877770e-02    1.0216427344e+05
    2.8792314231e-02    1.0217137500e+05
    2.8810730204e-02    1.0217396875e+05
    2.8829116374e-02    1.0216833594e+05
    2.8847465292e-02    1.0216921094e+05
    2.8865773231e-02    1.0216986719e+05
    2.8884036466e-02    1.0216984375e+05
    2.8902258724e-02    1.0216968750e+05
    2.8920443729e-02    1.0216987500e+05
    2.8938598931e-02    1.0216987500e+05
    2.8956729919e-02    1.0216566406e+05
    2.8974846005e-02    1.0216331250e+05
    2.8992949054e-02    1.0216013281e+05
    2.9011042789e-02    1.0215902344e+05
    2.9029129073e-02    1.0215833594e+05
    2.9047204182e-02    1.0215760156e+05
    2.9065268114e-02    1.0215866406e+05
    2.9083315283e-02    1.0215855469e+05
    2.9101338238e-02    1.0215781250e+05
    2.9119335115e-02    1.0215700000e+05
    2.9137304053e-02    1.0215659375e+05
    2.9155241325e-02    1.0215480469e+05
    2.9173148796e-02    1.0215055469e+05
    2.9191024601e-02    1.0214489844e+05
    2.9208874330e-02    1.0214396094e+05
    2.9226697981e-02    1.0214610156e+05
    2.9244501144e-02    1.0215133594e+05
    2.9262285680e-02    1.0215092969e+05
    2.9280053452e-02    1.0214871094e+05
    2.9297806323e-02    1.0214608594e+05
    2.9315544292e-02    1.0215331250e+05
    2.9333265498e-02    1.0215380469e+05
    2.9350971803e-02    1.0215388281e+05
    2.9368655756e-02    1.0215396094e+05
    2.9386319220e-02    1.0215589844e+05
    2.9403960332e-02    1.0215738281e+05
    2.9421577230e-02    1.0215837500e+05
    2.9439168051e-02    1.0215900781e+05
    2.9456734657e-02    1.0215986719e+05
    2.9474277049e-02    1.0216963281e+05
    2.9491795227e-02    1.0217030469e+05
    2.9509292915e-02    1.0216749219e+05
    2.9526771978e-02    1.0216459375e+05
    2.9544232413e-02    1.0216691406e+05
    2.9561674222e-02    1.0217292969e+05
    2.9579099268e-02    1.0217889844e+05
    2.9596509412e-02    1.0217992969e+05
    2.9613900930e-02    1.0218090625e+05
    2.9631273821e-02    1.0217590625e+05
    2.9648626223e-02    1.0217669531e+05
    2.9665958136e-02    1.0218502344e+05
    2.9683271423e-02    1.0219019531e+05
    2.9700560495e-02    1.0219212500e+05
    2.9717829078e-02    1.0219408594e+05
    2.9735075310e-02    1.0219605469e+05
    2.9752301052e-02    1.0219580469e+05
    2.9769508168e-02    1.0219791406e+05
    2.9786696658e-02    1.0220008594e+05
    2.9803866521e-02    1.0220237500e+05
    2.9821017757e-02    1.0220832031e+05
    2.9838152230e-02    1.0220858594e+05
    2.9855269939e-02    1.0221122656e+05
    2.9872370884e-02    1.0221385156e+05
    2.9889453202e-02    1.0221646094e+05
    2.9906518757e-02    1.0221782031e+05
    2.9923565686e-02    1.0222116406e+05
    2.9940593988e-02    1.0222202344e+05
    2.9957601801e-02    1.0222242969e+05
    2.9974590987e-02    1.0221434375e+05
    2.9991561547e-02    1.0221400000e+05
    3.0008511618e-02    1.0221467969e+05
    3.0025444925e-02    1.0221409375e+05
    3.0042361468e-02    1.0221444531e+05
    3.0059259385e-02    1.0221466406e+05
    3.0076142401e-02    1.0220781250e+05
    3.0093006790e-02    1.0220413281e+05
    3.0109854415e-02    1.0220371875e+05
    3.0126683414e-02    1.0220380469e+05
    3.0143497512e-02    1.0220372656e+05
    3.0160292983e-02    1.0219246094e+05
    3.0177071691e-02    1.0219121094e+05
    3.0193833634e-02    1.0218609375e+05
    3.0210576952e-02    1.0218015625e+05
    3.0227303505e-02    1.0217825000e+05
    3.0244011432e-02    1.0216616406e+05
    3.0260702595e-02    1.0216291406e+05
    3.0277376994e-02    1.0215947656e+05
    3.0294034630e-02    1.0214896094e+05
    3.0310675502e-02    1.0214287500e+05
    3.0327299610e-02    1.0213919531e+05
    3.0343905091e-02    1.0214008594e+05
    3.0360495672e-02    1.0213197656e+05
    3.0377071351e-02    1.0212890625e+05
    3.0393628404e-02    1.0212571875e+05
    3.0410168692e-02    1.0212075000e+05
    3.0426690355e-02    1.0211796094e+05
    3.0443195254e-02    1.0211392969e+05
    3.0459685251e-02    1.0211000781e+05
    3.0476156622e-02    1.0210810156e+05
    3.0492611229e-02    1.0211106250e+05
    3.0509050936e-02    1.0210937500e+05
    3.0525473878e-02    1.0211408594e+05
    3.0541881919e-02    1.0211466406e+05
    3.0558273196e-02    1.0211996875e+05
    3.0574647710e-02    1.0212125000e+05
    3.0591005459e-02    1.0213183594e+05
    3.0607348308e-02    1.0213691406e+05
    3.0623674393e-02    1.0214839844e+05
    3.0639985576e-02    1.0215522656e+05
    3.0656279996e-02    1.0216849219e+05
    3.0672557652e-02    1.0217064844e+05
    3.0688818544e-02    1.0217539844e+05
    3.0705062672e-02    1.0218153906e+05
    3.0721291900e-02    1.0219236719e+05
    3.0737506226e-02    1.0219634375e+05
    3.0753703788e-02    1.0219921875e+05
    3.0769886449e-02    1.0220435156e+05
    3.0786054209e-02    1.0220835156e+05
    3.0802207068e-02    1.0220791406e+05
    3.0818343163e-02    1.0221427344e+05
    3.0834466219e-02    1.0222003906e+05
    3.0850572512e-02    1.0222463281e+05
    3.0866663903e-02    1.0221877344e+05
    3.0882738531e-02    1.0222192969e+05
    3.0898798257e-02    1.0222553125e+05
    3.0914843082e-02    1.0222950781e+05
    3.0930871144e-02    1.0223305469e+05
    3.0946886167e-02    1.0222643750e+05
    3.0962884426e-02    1.0222846094e+05
    3.0978867784e-02    1.0222083594e+05
    3.0994836241e-02    1.0222210156e+05
    3.1010789797e-02    1.0222194531e+05
    3.1026728451e-02    1.0221827344e+05
    3.1042650342e-02    1.0221421094e+05
    3.1058559194e-02    1.0221522656e+05
    3.1074455008e-02    1.0221621094e+05
    3.1090334058e-02    1.0221633594e+05
    3.1106200069e-02    1.0220694531e+05
    3.1122051179e-02    1.0220536719e+05
    3.1137887388e-02    1.0220475781e+05
    3.1153710559e-02    1.0220400781e+05
    3.1169516966e-02    1.0220257031e+05
    3.1185310334e-02    1.0219925000e+05
    3.1201090664e-02    1.0219166406e+05
    3.1216854230e-02    1.0219133594e+05
    3.1232602894e-02    1.0218850000e+05
    3.1248336658e-02    1.0218716406e+05
    3.1264055520e-02    1.0217584375e+05
    3.1279761344e-02    1.0217410156e+05
    3.1295452267e-02    1.0217068750e+05
    3.1311132014e-02    1.0216956250e+05
    3.1326796860e-02    1.0216633594e+05
    3.1342446804e-02    1.0217015625e+05
    3.1358085573e-02    1.0217392969e+05
    3.1373709440e-02    1.0216164844e+05
    3.1389318407e-02    1.0215963281e+05
    3.1404916197e-02    1.0215889844e+05
    3.1420499086e-02    1.0216627344e+05
    3.1436067075e-02    1.0216347656e+05
    3.1451620162e-02    1.0216241406e+05
    3.1467158347e-02    1.0215833594e+05
    3.1482685357e-02    1.0215250000e+05
    3.1498193741e-02    1.0215703906e+05
    3.1513694674e-02    1.0215421094e+05
    3.1529176980e-02    1.0215337500e+05
    3.1544648111e-02    1.0215467969e+05
    3.1560108066e-02    1.0216097656e+05
    3.1575553119e-02    1.0216103125e+05
    3.1590986997e-02    1.0216959375e+05
    3.1606405973e-02    1.0217208594e+05
    3.1621813774e-02    1.0217356250e+05
    3.1637206674e-02    1.0217428125e+05
    3.1652588397e-02    1.0217475781e+05
    3.1667951494e-02    1.0216516406e+05
    3.1683307141e-02    1.0216578125e+05
    3.1698647887e-02    1.0216516406e+05
    3.1713977456e-02    1.0216512500e+05
    3.1729292125e-02    1.0216578906e+05
    3.1744595617e-02    1.0216585156e+05
    3.1759884208e-02    1.0216524219e+05
    3.1775161624e-02    1.0216450000e+05
    3.1790427864e-02    1.0216009375e+05
    3.1805675477e-02    1.0215522656e+05
    3.1820915639e-02    1.0215317969e+05
    3.1836140901e-02    1.0215353906e+05
    3.1851354986e-02    1.0216159375e+05
    3.1866557896e-02    1.0216190625e+05
    3.1881745905e-02    1.0216191406e+05
    3.1896922737e-02    1.0216225000e+05
    3.1912088394e-02    1.0216346875e+05
    3.1927239150e-02    1.0217294531e+05
    3.1942378730e-02    1.0217394531e+05
    3.1957507133e-02    1.0217366406e+05
    3.1972620636e-02    1.0216762500e+05
    3.1987726688e-02    1.0216769531e+05
    3.2002814114e-02    1.0216884375e+05
    3.2017890364e-02    1.0217185156e+05
    3.2032959163e-02    1.0217493750e+05
    3.2048013061e-02    1.0217797656e+05
    3.2063052058e-02    1.0218210156e+05
    3.2078083605e-02    1.0217578906e+05
    3.2093103975e-02    1.0217353125e+05
    3.2108109444e-02    1.0217358594e+05
    3.2123107463e-02    1.0217428125e+05
    3.2138090581e-02    1.0218144531e+05
    3.2153062522e-02    1.0218758594e+05
    3.2168023288e-02    1.0218178906e+05
    3.2182972878e-02    1.0218516406e+05
    3.2197911292e-02    1.0219075781e+05
    3.2212834805e-02    1.0219017969e+05
    3.2227750868e-02    1.0219200000e+05
    3.2242652029e-02    1.0219328906e+05
    3.2257542014e-02    1.0219459375e+05
    3.2272424549e-02    1.0219362500e+05
    3.2287292182e-02    1.0219587500e+05
    3.2302148640e-02    1.0219921875e+05
    3.2316997647e-02    1.0219971875e+05
    3.2331831753e-02    1.0220133594e+05
    3.2346658409e-02    1.0220244531e+05
    3.2361470163e-02    1.0220360156e+05
    3.2376270741e-02    1.0220485156e+05
    3.2391063869e-02    1.0220613281e+05
    3.2405842096e-02    1.0220346094e+05
    3.2420612872e-02    1.0220528906e+05
    3.2435368747e-02    1.0220066406e+05
    3.2450113446e-02    1.0220403906e+05
    3.2464850694e-02    1.0220746094e+05
    3.2479573041e-02    1.0220853906e+05
    3.2494287938e-02    1.0220730469e+05
    3.2508991659e-02    1.0220827344e+05
    3.2523684204e-02    1.0220611719e+05
    3.2538365573e-02    1.0220672656e+05
    3.2553035766e-02    1.0220674219e+05
    3.2567698509e-02    1.0220719531e+05
    3.2582346350e-02    1.0220877344e+05
    3.2596986741e-02    1.0220910156e+05
    3.2611619681e-02    1.0220878125e+05
    3.2626237720e-02    1.0220835156e+05
    3.2640848309e-02    1.0220553125e+05
    3.2655447721e-02    1.0220257031e+05
    3.2670035958e-02    1.0220000781e+05
    3.2684613019e-02    1.0219621094e+05
    3.2699178904e-02    1.0220033594e+05
    3.2713737339e-02    1.0220225781e+05
    3.2728284597e-02    1.0219830469e+05
    3.2742820680e-02    1.0219322656e+05
    3.2757349312e-02    1.0219260156e+05
    3.2771866769e-02    1.0219318750e+05
    3.2786373049e-02    1.0219621094e+05
    3.2800871879e-02    1.0219686719e+05
    3.2815355808e-02    1.0219344531e+05
    3.2829832286e-02    1.0219110156e+05
    3.2844301313e-02    1.0218941406e+05
    3.2858755440e-02    1.0219003906e+05
    3.2873202115e-02    1.0219307031e+05
    3.2887637615e-02    1.0218897656e+05
    3.2902065665e-02    1.0218838281e+05
    3.2916482538e-02    1.0218722656e+05
    3.2930891961e-02    1.0218725000e+05
    3.2945290208e-02    1.0218605469e+05
    3.2959677279e-02    1.0218596875e+05
    3.2974056900e-02    1.0218541406e+05
    3.2988425344e-02    1.0218603906e+05
    3.3002786338e-02    1.0218440625e+05
    3.3017136157e-02    1.0218510156e+05
    3.3031478524e-02    1.0218466406e+05
    3.3045809716e-02    1.0218421094e+05
    3.3060129732e-02    1.0218602344e+05
    3.3074442297e-02    1.0218540625e+05
    3.3088747412e-02    1.0218472656e+05
    3.3103041351e-02    1.0218397656e+05
    3.3117324114e-02    1.0218200781e+05
    3.3131599426e-02    1.0218130469e+05
    3.3145863563e-02    1.0218300781e+05
    3.3160120249e-02    1.0218244531e+05
    3.3174365759e-02    1.0218196094e+05
    3.3188603818e-02    1.0218249219e+05
    3.3202830702e-02    1.0217908594e+05
    3.3217050135e-02    1.0217321094e+05
    3.3231258392e-02    1.0217075000e+05
    3.3245459199e-02    1.0217997656e+05
    3.3259648830e-02    1.0217966406e+05
    3.3273831010e-02    1.0217946875e+05
    3.3288005739e-02    1.0217933594e+05
    3.3302169293e-02    1.0217914844e+05
    3.3316325396e-02    1.0217885156e+05
    3.3330474049e-02    1.0217389844e+05
    3.3344611526e-02    1.0216746094e+05
    3.3358741552e-02    1.0216733594e+05
    3.3372864127e-02    1.0216835156e+05
    3.3386975527e-02    1.0217000000e+05
    3.3401079476e-02    1.0216809375e+05
    3.3415172249e-02    1.0216612500e+05
    3.3429257572e-02    1.0216297656e+05
    3.3443335444e-02    1.0216102344e+05
    3.3457405865e-02    1.0216133594e+05
    3.3471468836e-02    1.0215930469e+05
    3.3485524356e-02    1.0215833594e+05
    3.3499568701e-02    1.0215610156e+05
    3.3513605595e-02    1.0215481250e+05
    3.3527631313e-02    1.0215271875e+05
    3.3541653305e-02    1.0214586719e+05
    3.3555664122e-02    1.0213977344e+05
    3.3569667488e-02    1.0213822656e+05
    3.3583663404e-02    1.0213621094e+05
    3.3597648144e-02    1.0213372656e+05
    3.3611625433e-02    1.0213253125e+05
    3.3625595272e-02    1.0213771094e+05
    3.3639557660e-02    1.0213850781e+05
    3.3653512597e-02    1.0213688281e+05
    3.3667460084e-02    1.0213516406e+05
    3.3681396395e-02    1.0212647656e+05
    3.3695328981e-02    1.0212214844e+05
    3.3709254116e-02    1.0212015625e+05
    3.3723168075e-02    1.0212055469e+05
    3.3737078309e-02    1.0211868750e+05
    3.3750977367e-02    1.0212125781e+05
    3.3764872700e-02    1.0211246094e+05
    3.3778760582e-02    1.0211055469e+05
    3.3792637289e-02    1.0210877344e+05
    3.3806510270e-02    1.0211005469e+05
    3.3820372075e-02    1.0210616406e+05
    3.3834230155e-02    1.0210477344e+05
    3.3848077059e-02    1.0210466406e+05
    3.3861916512e-02    1.0211324219e+05
    3.3875752240e-02    1.0211272656e+05
    3.3889576793e-02    1.0210766406e+05
    3.3903393894e-02    1.0210121094e+05
    3.3917203546e-02    1.0210044531e+05
    3.3931009471e-02    1.0210365625e+05
    3.3944804221e-02    1.0210343750e+05
    3.3958595246e-02    1.0209739844e+05
    3.3972378820e-02    1.0209464844e+05
    3.3986151218e-02    1.0209196094e+05
    3.3999919891e-02    1.0209033594e+05
    3.4013681114e-02    1.0209106250e+05
    3.4027434886e-02    1.0208656250e+05
    3.4041177481e-02    1.0208549219e+05
    3.4054916352e-02    1.0208446094e+05
    3.4068647772e-02    1.0208296094e+05
    3.4082375467e-02    1.0208082031e+05
    3.4096091986e-02    1.0207981250e+05
    3.4109804779e-02    1.0207764844e+05
    3.4123510122e-02    1.0207722656e+05
    3.4137208015e-02    1.0207453125e+05
    3.4150898457e-02    1.0207356250e+05
    3.4164581448e-02    1.0207152344e+05
    3.4178260714e-02    1.0207007031e+05
    3.4191932529e-02    1.0206872656e+05
    3.4205596894e-02    1.0206750781e+05
    3.4219253808e-02    1.0206633594e+05
    3.4232903272e-02    1.0206466406e+05
    3.4246545285e-02    1.0206414844e+05
    3.4260183573e-02    1.0206756250e+05
    3.4273810685e-02    1.0206260156e+05
    3.4287434071e-02    1.0206206250e+05
    3.4301050007e-02    1.0206092969e+05
    3.4314658493e-02    1.0206085156e+05
    3.4328263253e-02    1.0205969531e+05
    3.4341860563e-02    1.0205908594e+05
    3.4355450422e-02    1.0205789844e+05
    3.4369036555e-02    1.0205733594e+05
    3.4382611513e-02    1.0205622656e+05
    3.4396182746e-02    1.0205528906e+05
    3.4409742802e-02    1.0205441406e+05
    3.4423299134e-02    1.0205809375e+05
    3.4436848015e-02    1.0206207031e+05
    3.4450393170e-02    1.0205217969e+05
    3.4463927150e-02    1.0205150000e+05
    3.4477461129e-02    1.0205314844e+05
    3.4490987659e-02    1.0205541406e+05
    3.4504506737e-02    1.0205307031e+05
    3.4518022090e-02    1.0205008594e+05
    3.4531529993e-02    1.0204891406e+05
    3.4545030445e-02    1.0205364844e+05
    3.4558523446e-02    1.0205761719e+05
    3.4572008997e-02    1.0204967969e+05
    3.4585487098e-02    1.0204669531e+05
    3.4598957747e-02    1.0204596094e+05
    3.4612424672e-02    1.0204455469e+05
    3.4625884145e-02    1.0204362500e+05
    3.4639336169e-02    1.0204210156e+05
    3.4652780741e-02    1.0204284375e+05
    3.4666225314e-02    1.0203942969e+05
    3.4679658711e-02    1.0203828906e+05
    3.4693088382e-02    1.0203716406e+05
    3.4706510603e-02    1.0203610156e+05
    3.4719929099e-02    1.0203508594e+05
    3.4733340144e-02    1.0203464844e+05
    3.4746743739e-02    1.0203421094e+05
    3.4760143608e-02    1.0203315625e+05
    3.4773536026e-02    1.0203197656e+05
    3.4786924720e-02    1.0203065625e+05
    3.4800305963e-02    1.0202803906e+05
    3.4813679755e-02    1.0202646875e+05
    3.4827046096e-02    1.0202256250e+05
    3.4840408713e-02    1.0201793750e+05
    3.4853763878e-02    1.0201546875e+05
    3.4867111593e-02    1.0201736719e+05
    3.4880455583e-02    1.0200780469e+05
    3.4893795848e-02    1.0200346094e+05
    3.4907124937e-02    1.0200131250e+05
    3.4920454025e-02    1.0200152344e+05
    3.4933775663e-02    1.0200185156e+05
    3.4947093576e-02    1.0200116406e+05
    3.4960404038e-02    1.0199784375e+05
    3.4973710775e-02    1.0199606250e+05
    3.4987010062e-02    1.0199185156e+05
endcurve
