Curveplot
LS-DYNA keyword deck by LS-PrePost                          
Time
Pressure
Defined Connection
Pressure @ 5 #pts=1745
* Minval=     9.7808414062e+04 at time=         0.0126559576
* Maxval=     1.7236592188e+05 at time=         0.0060591097
    0.0000000000e+00    9.9998210938e+04
    3.3812357287e-05    9.9998210938e+04
    6.1326652940e-05    9.9998289062e+04
    8.9102875791e-05    9.9998539062e+04
    1.1682785407e-04    9.9998585938e+04
    1.4461828687e-04    9.9998843750e+04
    1.7236733402e-04    9.9999273438e+04
    2.0016246708e-04    1.0000909375e+05
    2.2795486439e-04    1.0000055469e+05
    2.5574557367e-04    1.0000052344e+05
    2.8353667585e-04    1.0000005469e+05
    3.1133697485e-04    9.9990632812e+04
    3.3912662184e-04    9.9999648438e+04
    3.6691734567e-04    9.9999898438e+04
    3.9470891352e-04    1.0000046094e+05
    4.2249175021e-04    1.0001014844e+05
    4.5027161832e-04    1.0000146094e+05
    4.7804549104e-04    1.0000141406e+05
    5.0581363030e-04    9.9992000000e+04
    5.3357944125e-04    1.0000091406e+05
    5.6134146871e-04    1.0000103906e+05
    5.8909942163e-04    1.0000086719e+05
    6.1685312539e-04    1.0000041406e+05
    6.4460188150e-04    1.0000046094e+05
    6.7234638846e-04    1.0000102344e+05
    7.0008635521e-04    1.0000164844e+05
    7.2782178177e-04    1.0000185156e+05
    7.5555208605e-04    9.9997085938e+04
    7.8327720985e-04    9.9999085938e+04
    8.1099680392e-04    1.0000164844e+05
    8.3871174138e-04    1.0000680469e+05
    8.6642213864e-04    9.9997429688e+04
    8.9412782108e-04    9.9991656250e+04
    9.2182843946e-04    9.9995289062e+04
    9.4952445943e-04    9.9999804688e+04
    9.7721535712e-04    1.0000947656e+05
    1.0049008997e-03    1.0000096094e+05
    1.0325826006e-03    9.9992085938e+04
    1.0602590628e-03    1.0000158594e+05
    1.0879321489e-03    1.0001121875e+05
    1.1155996472e-03    1.0000252344e+05
    1.1432634201e-03    1.0000258594e+05
    1.1709230021e-03    9.9992343750e+04
    1.1985785095e-03    9.9990710938e+04
    1.2262313394e-03    9.9999632812e+04
    1.2538790470e-03    1.0000984375e+05
    1.2815232622e-03    1.0001125781e+05
    1.3091630535e-03    9.9994000000e+04
    1.3368004002e-03    9.9995039062e+04
    1.3644339051e-03    1.0000813281e+05
    1.3920635683e-03    1.0002725781e+05
    1.4196902048e-03    1.0006066406e+05
    1.4473132323e-03    1.0010002344e+05
    1.4749332331e-03    1.0018475781e+05
    1.5025498578e-03    1.0032155469e+05
    1.5301633393e-03    1.0051991406e+05
    1.5577742597e-03    1.0078128125e+05
    1.5853822697e-03    1.0109746875e+05
    1.6129877185e-03    1.0146146094e+05
    1.6405890929e-03    1.0186236719e+05
    1.6681876732e-03    1.0225572656e+05
    1.6957829939e-03    1.0259963281e+05
    1.7233766848e-03    1.0287289844e+05
    1.7509678146e-03    1.0305346094e+05
    1.7785291420e-03    1.0313716406e+05
    1.8060547300e-03    1.0313019531e+05
    1.8335470231e-03    1.0305274219e+05
    1.8610082334e-03    1.0292138281e+05
    1.8884401070e-03    1.0275224219e+05
    1.9158447394e-03    1.0258188281e+05
    1.9432241097e-03    1.0242535156e+05
    1.9705800805e-03    1.0230986719e+05
    1.9979148638e-03    1.0224100000e+05
    2.0252298564e-03    1.0223368750e+05
    2.0525271539e-03    1.0228412500e+05
    2.0798076876e-03    1.0238716406e+05
    2.1070730872e-03    1.0253233594e+05
    2.1343247499e-03    1.0270455469e+05
    2.1615643054e-03    1.0289192969e+05
    2.1887931507e-03    1.0308572656e+05
    2.2160108201e-03    1.0327646094e+05
    2.2432196420e-03    1.0345733594e+05
    2.2704207804e-03    1.0361871094e+05
    2.2976147011e-03    1.0374853906e+05
    2.3248014040e-03    1.0385817969e+05
    2.3519827519e-03    1.0393546875e+05
    2.3791582789e-03    1.0397846875e+05
    2.4063293822e-03    1.0399406250e+05
    2.4334960617e-03    1.0397925000e+05
    2.4606597144e-03    1.0393800000e+05
    2.4878205732e-03    1.0387283594e+05
    2.5149781723e-03    1.0378309375e+05
    2.5421329774e-03    1.0368666406e+05
    2.5692859199e-03    1.0358167969e+05
    2.5964374654e-03    1.0347933594e+05
    2.6235871483e-03    1.0338052344e+05
    2.6507352013e-03    1.0328921875e+05
    2.6778825559e-03    1.0320252344e+05
    2.7050296776e-03    1.0312072656e+05
    2.7321761008e-03    1.0303968750e+05
    2.7593218256e-03    1.0295762500e+05
    2.7864677832e-03    1.0286610156e+05
    2.8136142064e-03    1.0276003906e+05
    2.8407603968e-03    1.0264864844e+05
    2.8679079842e-03    1.0252824219e+05
    2.8950548731e-03    1.0240974219e+05
    2.9222022276e-03    1.0229883594e+05
    2.9493502807e-03    1.0221271875e+05
    2.9764990322e-03    1.0216003906e+05
    3.0036487151e-03    1.0214844531e+05
    3.0307997949e-03    1.0218211719e+05
    3.0579508748e-03    1.0226178906e+05
    3.0851035845e-03    1.0237016406e+05
    3.1122572254e-03    1.0250013281e+05
    3.1394117977e-03    1.0263855469e+05
    3.1665677670e-03    1.0275811719e+05
    3.1937246677e-03    1.0284855469e+05
    3.2208829653e-03    1.0289894531e+05
    3.2480424270e-03    1.0290946094e+05
    3.2752046827e-03    1.0287528906e+05
    3.2952371985e-03    1.0281121875e+05
    3.3145032357e-03    1.0275177344e+05
    3.3336398192e-03    1.0268186719e+05
    3.3528339118e-03    1.0261591406e+05
    3.3720366191e-03    1.0254796094e+05
    3.3912549261e-03    1.0247942969e+05
    3.4104890656e-03    1.0241383594e+05
    3.4297339153e-03    1.0234996875e+05
    3.4486323129e-03    1.0228584375e+05
    3.4671388566e-03    1.0221533594e+05
    3.4854323603e-03    1.0214538281e+05
    3.5036695190e-03    1.0207558594e+05
    3.5219141282e-03    1.0199618750e+05
    3.5401545465e-03    1.0192114844e+05
    3.5583588760e-03    1.0184366406e+05
    3.5765271168e-03    1.0177074219e+05
    3.5946895368e-03    1.0170096094e+05
    3.6139658187e-03    1.0163497656e+05
    3.6330535077e-03    1.0157486719e+05
    3.6521453876e-03    1.0152164844e+05
    3.6699753255e-03    1.0147572656e+05
    3.6875614896e-03    1.0143358594e+05
    3.7050142419e-03    1.0139731250e+05
    3.7224807311e-03    1.0135719531e+05
    3.7400643341e-03    1.0131791406e+05
    3.7577797193e-03    1.0127931250e+05
    3.7755726371e-03    1.0123684375e+05
    3.7933769636e-03    1.0119946094e+05
    3.8111612666e-03    1.0115817969e+05
    3.8289318327e-03    1.0111750000e+05
    3.8467168342e-03    1.0107986719e+05
    3.8645383902e-03    1.0104289844e+05
    3.8824023213e-03    1.0100902344e+05
    3.9002960548e-03    1.0096699219e+05
    3.9182156324e-03    1.0093008594e+05
    3.9361710660e-03    1.0088961719e+05
    3.9541716687e-03    1.0085463281e+05
    3.9733103476e-03    1.0081647656e+05
    3.9924201556e-03    1.0078413281e+05
    4.0104058571e-03    1.0076328125e+05
    4.0284004062e-03    1.0075017969e+05
    4.0464363992e-03    1.0074492969e+05
    4.0656095371e-03    1.0074285156e+05
    4.0847789496e-03    1.0074896094e+05
    4.1039343923e-03    1.0075409375e+05
    4.1219722480e-03    1.0076227344e+05
    4.1400394402e-03    1.0077340625e+05
    4.1591953486e-03    1.0078659375e+05
    4.1784178466e-03    1.0079764844e+05
    4.1976389475e-03    1.0080609375e+05
    4.2168586515e-03    1.0082100781e+05
    4.2360713705e-03    1.0083733594e+05
    4.2552771047e-03    1.0084828125e+05
    4.2744791135e-03    1.0085969531e+05
    4.2936825193e-03    1.0086466406e+05
    4.3128933758e-03    1.0086935156e+05
    4.3321144767e-03    1.0087365625e+05
    4.3513495475e-03    1.0087708594e+05
    4.3705995195e-03    1.0087521094e+05
    4.3898657896e-03    1.0087475781e+05
    4.4091497548e-03    1.0087483594e+05
    4.4284537435e-03    1.0086369531e+05
    4.4477786869e-03    1.0085212500e+05
    4.4671236537e-03    1.0083460156e+05
    4.4864914380e-03    1.0080639844e+05
    4.5058806427e-03    1.0077128906e+05
    4.5252908021e-03    1.0073166406e+05
    4.5447219163e-03    1.0068310156e+05
    4.5641721226e-03    1.0063288281e+05
    4.5836409554e-03    1.0058171875e+05
    4.6031279489e-03    1.0052883594e+05
    4.6226321720e-03    1.0047502344e+05
    4.6421540901e-03    1.0042097656e+05
    4.6616927721e-03    1.0037267969e+05
    4.6812482178e-03    1.0032922656e+05
    4.7008208930e-03    1.0029153906e+05
    4.7204112634e-03    1.0026333594e+05
    4.7400193289e-03    1.0024988281e+05
    4.7596455552e-03    1.0024477344e+05
    4.7792894766e-03    1.0025031250e+05
    4.7989510931e-03    1.0026183594e+05
    4.8186304048e-03    1.0028536719e+05
    4.8383255489e-03    1.0030866406e+05
    4.8580355942e-03    1.0033353906e+05
    4.8777610064e-03    1.0036132031e+05
    4.8975008540e-03    1.0039349219e+05
    4.9172551371e-03    1.0042508594e+05
    4.9370229244e-03    1.0045280469e+05
    4.9568060786e-03    1.0048084375e+05
    4.9766036682e-03    1.0050403125e+05
    4.9964170903e-03    1.0052657031e+05
    5.0162458792e-03    1.0054355469e+05
    5.0360900350e-03    1.0056178906e+05
    5.0559476949e-03    1.0057658594e+05
    5.0758207217e-03    1.0059028906e+05
    5.0957072526e-03    1.0060084375e+05
    5.1156077534e-03    1.0060589844e+05
    5.1355226897e-03    1.0061468750e+05
    5.1554525271e-03    1.0062058594e+05
    5.1753963344e-03    1.0062369531e+05
    5.1953555085e-03    1.0062881250e+05
    5.2153295837e-03    1.0063630469e+05
    5.2353194915e-03    1.0064171094e+05
    5.2553247660e-03    1.0064902344e+05
    5.2753463387e-03    1.0065644531e+05
    5.2953832783e-03    1.0065940625e+05
    5.3154369816e-03    1.0066467969e+05
    5.3355065174e-03    1.0067235156e+05
    5.3555918857e-03    1.0068008594e+05
    5.3756926209e-03    1.0068816406e+05
    5.3958082572e-03    1.0069608594e+05
    5.4159392603e-03    1.0070860156e+05
    5.4360851645e-03    1.0071664844e+05
    5.4562464356e-03    1.0072496875e+05
    5.4764230736e-03    1.0072858594e+05
    5.4966160096e-03    1.0073891406e+05
    5.5168238468e-03    1.0074914844e+05
    5.5370470509e-03    1.0075449219e+05
    5.5572865531e-03    1.0075977344e+05
    5.5775423534e-03    1.0076965625e+05
    5.5978130549e-03    1.0077533594e+05
    5.6181000546e-03    1.0078352344e+05
    5.6384028867e-03    1.0079208594e+05
    5.6587206200e-03    1.0080983594e+05
    5.6790532544e-03    1.0081909375e+05
    5.6994007900e-03    1.0082867969e+05
    5.7197632268e-03    1.0083885156e+05
    5.7401410304e-03    1.0085000000e+05
    5.7605337352e-03    1.0088150781e+05
    5.7809422724e-03    1.0092868750e+05
    5.8013652451e-03    1.0102728906e+05
    5.8218040504e-03    1.0122841406e+05
    5.8422577567e-03    1.0167925000e+05
    5.8627268299e-03    1.0268896094e+05
    5.8832112700e-03    1.0485839844e+05
    5.9037101455e-03    1.0909241406e+05
    5.9242248535e-03    1.1628009375e+05
    5.9447535314e-03    1.2665091406e+05
    5.9641525149e-03    1.3922898438e+05
    5.9830932878e-03    1.5112884375e+05
    6.0020405799e-03    1.6088284375e+05
    6.0210367665e-03    1.6766646875e+05
    6.0400799848e-03    1.7131654688e+05
    6.0591096990e-03    1.7236592188e+05
    6.0781282373e-03    1.7176287500e+05
    6.0972142965e-03    1.7036314062e+05
    6.1162756756e-03    1.6882645312e+05
    6.1353649944e-03    1.6746571875e+05
    6.1544459313e-03    1.6625356250e+05
    6.1734300107e-03    1.6507285938e+05
    6.1924448237e-03    1.6379571875e+05
    6.2115197070e-03    1.6235948438e+05
    6.2306127511e-03    1.6076009375e+05
    6.2497169711e-03    1.5902984375e+05
    6.2688281760e-03    1.5721621875e+05
    6.2879407778e-03    1.5536393750e+05
    6.3070552424e-03    1.5352606250e+05
    6.3261794858e-03    1.5171167188e+05
    6.3453060575e-03    1.4991784375e+05
    6.3644465990e-03    1.4815331250e+05
    6.3835908659e-03    1.4640106250e+05
    6.4027444459e-03    1.4466957812e+05
    6.4219115302e-03    1.4296729688e+05
    6.4410855994e-03    1.4130757812e+05
    6.4602680504e-03    1.3971057812e+05
    6.4794607460e-03    1.3819485938e+05
    6.4986641519e-03    1.3675654688e+05
    6.5178787336e-03    1.3538459375e+05
    6.5371058881e-03    1.3406925000e+05
    6.5563363023e-03    1.3279356250e+05
    6.5755699761e-03    1.3155142188e+05
    6.5948092379e-03    1.3034236719e+05
    6.6140629351e-03    1.2915707031e+05
    6.6333152354e-03    1.2800060156e+05
    6.6525745206e-03    1.2686728906e+05
    6.6718445159e-03    1.2576141406e+05
    6.6911154427e-03    1.2468808594e+05
    6.7104012705e-03    1.2364441406e+05
    6.7296870984e-03    1.2263222656e+05
    6.7489854991e-03    1.2165925781e+05
    6.7682852969e-03    1.2072731250e+05
    6.7875892855e-03    1.1983827344e+05
    6.8069072440e-03    1.1898835156e+05
    6.8262196146e-03    1.1818128125e+05
    6.8455408327e-03    1.1741528125e+05
    6.8648783490e-03    1.1669485156e+05
    6.8842126057e-03    1.1602008594e+05
    6.9035501219e-03    1.1538475781e+05
    6.9228983484e-03    1.1479228906e+05
    6.9422605447e-03    1.1423564844e+05
    6.9616222754e-03    1.1371347656e+05
    6.9809844717e-03    1.1322716406e+05
    7.0003494620e-03    1.1277381250e+05
    7.0197195746e-03    1.1235124219e+05
    7.0390999317e-03    1.1196089844e+05
    7.0584909990e-03    1.1159784375e+05
    7.0778946392e-03    1.1126392969e+05
    7.0973108523e-03    1.1094837500e+05
    7.1167377755e-03    1.1065750781e+05
    7.1361698210e-03    1.1038646094e+05
    7.1556069888e-03    1.1013878906e+05
    7.1750483476e-03    1.0991628906e+05
    7.1944966912e-03    1.0971261719e+05
    7.2139529511e-03    1.0953665625e+05
    7.2334166616e-03    1.0937578906e+05
    7.2528840974e-03    1.0924419531e+05
    7.2723543271e-03    1.0912802344e+05
    7.2918278165e-03    1.0904552344e+05
    7.3113050312e-03    1.0898516406e+05
    7.3307845742e-03    1.0895942969e+05
    7.3502692394e-03    1.0896285156e+05
    7.3697618209e-03    1.0899806250e+05
    7.3892641813e-03    1.0905965625e+05
    7.4087800458e-03    1.0913428906e+05
    7.4282912537e-03    1.0922622656e+05
    7.4477996677e-03    1.0931744531e+05
    7.4673094787e-03    1.0941609375e+05
    7.4868267402e-03    1.0950746094e+05
    7.5063589029e-03    1.0959656250e+05
    7.5258887373e-03    1.0967167969e+05
    7.5454111211e-03    1.0974122656e+05
    7.5649353676e-03    1.0979903906e+05
    7.5844703242e-03    1.0984202344e+05
    7.6040057465e-03    1.0987346094e+05
    7.6235276647e-03    1.0988966406e+05
    7.6430505142e-03    1.0989946094e+05
    7.6625877991e-03    1.0989997656e+05
    7.6821087860e-03    1.0989325781e+05
    7.7016241848e-03    1.0988208594e+05
    7.7211544849e-03    1.0986689844e+05
    7.7406810597e-03    1.0983700000e+05
    7.7602043748e-03    1.0980430469e+05
    7.7797495760e-03    1.0976663281e+05
    7.7992938459e-03    1.0972018750e+05
    7.8188432381e-03    1.0967633594e+05
    7.8384252265e-03    1.0962155469e+05
    7.8580006957e-03    1.0956396875e+05
    7.8775910661e-03    1.0950835156e+05
    7.8972103074e-03    1.0944450000e+05
    7.9168286175e-03    1.0937678906e+05
    7.9364804551e-03    1.0930802344e+05
    7.9561360180e-03    1.0924915625e+05
    7.9758102074e-03    1.0919396094e+05
    7.9955114052e-03    1.0914714844e+05
    8.0152126029e-03    1.0910767969e+05
    8.0349491909e-03    1.0907309375e+05
    8.0546662211e-03    1.0904771094e+05
    8.0743944272e-03    1.0902875781e+05
    8.0941170454e-03    1.0902483594e+05
    8.1138620153e-03    1.0902396094e+05
    8.1336386502e-03    1.0903405469e+05
    8.1534720957e-03    1.0904403906e+05
    8.1733558327e-03    1.0905816406e+05
    8.1932730973e-03    1.0906732031e+05
    8.2132071257e-03    1.0907107031e+05
    8.2330890000e-03    1.0906653906e+05
    8.2529615611e-03    1.0905325781e+05
    8.2727763802e-03    1.0903807031e+05
    8.2926023751e-03    1.0901366406e+05
    8.3124246448e-03    1.0898025000e+05
    8.3322748542e-03    1.0893828906e+05
    8.3521194756e-03    1.0889075000e+05
    8.3719678223e-03    1.0883996875e+05
    8.3917891607e-03    1.0879097656e+05
    8.4116021171e-03    1.0874471875e+05
    8.4314141423e-03    1.0870106250e+05
    8.4512168542e-03    1.0866072656e+05
    8.4710381925e-03    1.0862040625e+05
    8.4908353165e-03    1.0858141406e+05
    8.5106678307e-03    1.0854459375e+05
    8.5304882377e-03    1.0850753906e+05
    8.5503393784e-03    1.0846716406e+05
    8.5699046031e-03    1.0842391406e+05
    8.5892248899e-03    1.0838046094e+05
    8.6083402857e-03    1.0833153906e+05
    8.6272666231e-03    1.0827387500e+05
    8.6460309103e-03    1.0821764844e+05
    8.6646731943e-03    1.0816183594e+05
    8.6832325906e-03    1.0811099219e+05
    8.7017398328e-03    1.0806468750e+05
    8.7202098221e-03    1.0802509375e+05
    8.7386453524e-03    1.0798439844e+05
    8.7570473552e-03    1.0795118750e+05
    8.7753897533e-03    1.0792852344e+05
    8.7936492637e-03    1.0791091406e+05
    8.8118780404e-03    1.0789902344e+05
    8.8300397620e-03    1.0788471875e+05
    8.8481390849e-03    1.0788014844e+05
    8.8662039489e-03    1.0787735156e+05
    8.8842641562e-03    1.0787784375e+05
    8.9023411274e-03    1.0787678906e+05
    8.9204348624e-03    1.0787752344e+05
    8.9385388419e-03    1.0787306250e+05
    8.9566456154e-03    1.0786421094e+05
    8.9747514576e-03    1.0784585156e+05
    8.9928600937e-03    1.0782327344e+05
    9.0109808370e-03    1.0779263281e+05
    9.0291155502e-03    1.0775491406e+05
    9.0472688898e-03    1.0771466406e+05
    9.0654399246e-03    1.0767062500e+05
    9.0836230665e-03    1.0762458594e+05
    9.1018192470e-03    1.0757844531e+05
    9.1200266033e-03    1.0752764844e+05
    9.1382460669e-03    1.0747821094e+05
    9.1564757749e-03    1.0742191406e+05
    9.1747231781e-03    1.0736007031e+05
    9.1929892078e-03    1.0729382031e+05
    9.2112747952e-03    1.0723122656e+05
    9.2295790091e-03    1.0716262500e+05
    9.2479009181e-03    1.0709528906e+05
    9.2662386596e-03    1.0702886719e+05
    9.2845931649e-03    1.0695919531e+05
    9.3029672280e-03    1.0689109375e+05
    9.3213599175e-03    1.0682600000e+05
    9.3397712335e-03    1.0675274219e+05
    9.3582011759e-03    1.0668353906e+05
    9.3766497448e-03    1.0660715625e+05
    9.3951150775e-03    1.0652914844e+05
    9.4135999680e-03    1.0645247656e+05
    9.4321016222e-03    1.0637886719e+05
    9.4506228343e-03    1.0630741406e+05
    9.4691645354e-03    1.0623586719e+05
    9.4877239317e-03    1.0617388281e+05
    9.5063010231e-03    1.0611246094e+05
    9.5248948783e-03    1.0605178906e+05
    9.5435054973e-03    1.0600178906e+05
    9.5621328801e-03    1.0595334375e+05
    9.5807760954e-03    1.0590635156e+05
    9.5994332805e-03    1.0586490625e+05
    9.6181081608e-03    1.0582622656e+05
    9.6367979422e-03    1.0578735156e+05
    9.6555035561e-03    1.0574589844e+05
    9.6742231399e-03    1.0571085156e+05
    9.6929576248e-03    1.0567522656e+05
    9.7117051482e-03    1.0563606250e+05
    9.7304685041e-03    1.0559775000e+05
    9.7492448986e-03    1.0556037500e+05
    9.7680361941e-03    1.0552202344e+05
    9.7868405282e-03    1.0548446094e+05
    9.8056588322e-03    1.0544746094e+05
    9.8244920373e-03    1.0540766406e+05
    9.8433364183e-03    1.0536574219e+05
    9.8621929064e-03    1.0532481250e+05
    9.8810633644e-03    1.0528496094e+05
    9.8999459296e-03    1.0524050781e+05
    9.9188406020e-03    1.0519835156e+05
    9.9377483130e-03    1.0516262500e+05
    9.9566690624e-03    1.0512350000e+05
    9.9756028503e-03    1.0508658594e+05
    9.9945487455e-03    1.0503984375e+05
    1.0013507679e-02    1.0499217969e+05
    1.0032479651e-02    1.0493742969e+05
    1.0051463731e-02    1.0487658594e+05
    1.0070459917e-02    1.0480903906e+05
    1.0089469142e-02    1.0473296875e+05
    1.0108492337e-02    1.0465321094e+05
    1.0127528571e-02    1.0456980469e+05
    1.0146577843e-02    1.0447885156e+05
    1.0165639222e-02    1.0438357031e+05
    1.0184712708e-02    1.0429622656e+05
    1.0203798302e-02    1.0420139844e+05
    1.0222896002e-02    1.0411857031e+05
    1.0242006741e-02    1.0404597656e+05
    1.0261129588e-02    1.0398191406e+05
    1.0280264542e-02    1.0392681250e+05
    1.0299413465e-02    1.0388933594e+05
    1.0318575427e-02    1.0386183594e+05
    1.0337748565e-02    1.0384466406e+05
    1.0356934741e-02    1.0384185156e+05
    1.0376133956e-02    1.0383989844e+05
    1.0395346209e-02    1.0384094531e+05
    1.0414571501e-02    1.0383250000e+05
    1.0433809832e-02    1.0382330469e+05
    1.0453061201e-02    1.0381128906e+05
    1.0472324677e-02    1.0379646094e+05
    1.0491601191e-02    1.0377386719e+05
    1.0510892607e-02    1.0374755469e+05
    1.0530196130e-02    1.0372219531e+05
    1.0549513623e-02    1.0369308594e+05
    1.0568842292e-02    1.0366231250e+05
    1.0588183999e-02    1.0363374219e+05
    1.0607538745e-02    1.0360078906e+05
    1.0626907460e-02    1.0357486719e+05
    1.0646289214e-02    1.0355878906e+05
    1.0665684007e-02    1.0353437500e+05
    1.0685092770e-02    1.0351452344e+05
    1.0704516433e-02    1.0349703906e+05
    1.0723951273e-02    1.0348460156e+05
    1.0743400082e-02    1.0346771094e+05
    1.0762862861e-02    1.0345292969e+05
    1.0782338679e-02    1.0343707031e+05
    1.0801829398e-02    1.0341347656e+05
    1.0821334086e-02    1.0339360156e+05
    1.0840852745e-02    1.0337350000e+05
    1.0860386305e-02    1.0334406250e+05
    1.0879932903e-02    1.0331903906e+05
    1.0899493471e-02    1.0329610156e+05
    1.0919069871e-02    1.0328375000e+05
    1.0938662104e-02    1.0326728906e+05
    1.0958270170e-02    1.0325730469e+05
    1.0977892205e-02    1.0325116406e+05
    1.0997531936e-02    1.0324690625e+05
    1.1017187499e-02    1.0324444531e+05
    1.1036860757e-02    1.0324787500e+05
    1.1056551710e-02    1.0325446094e+05
    1.1076259427e-02    1.0325666406e+05
    1.1095987633e-02    1.0325543750e+05
    1.1115733534e-02    1.0325287500e+05
    1.1135498993e-02    1.0324866406e+05
    1.1155283079e-02    1.0324415625e+05
    1.1175086722e-02    1.0323103906e+05
    1.1194912717e-02    1.0321832031e+05
    1.1214758269e-02    1.0319353906e+05
    1.1234625243e-02    1.0317003906e+05
    1.1254511774e-02    1.0313921094e+05
    1.1274418794e-02    1.0310378906e+05
    1.1294347234e-02    1.0306864844e+05
    1.1314296164e-02    1.0303737500e+05
    1.1334266514e-02    1.0300158594e+05
    1.1354257353e-02    1.0296638281e+05
    1.1374268681e-02    1.0293446094e+05
    1.1394302361e-02    1.0290193750e+05
    1.1414355598e-02    1.0286902344e+05
    1.1434430256e-02    1.0283822656e+05
    1.1454525404e-02    1.0280650000e+05
    1.1474640109e-02    1.0277105469e+05
    1.1494777165e-02    1.0273492969e+05
    1.1514934711e-02    1.0271175000e+05
    1.1535113677e-02    1.0270458594e+05
    1.1555313133e-02    1.0272958594e+05
    1.1575534008e-02    1.0279042969e+05
    1.1595774442e-02    1.0290971094e+05
    1.1616035365e-02    1.0309340625e+05
    1.1636316776e-02    1.0336205469e+05
    1.1656619608e-02    1.0373564844e+05
    1.1676942930e-02    1.0423585156e+05
    1.1697287671e-02    1.0488031250e+05
    1.1717652902e-02    1.0566924219e+05
    1.1738038622e-02    1.0658616406e+05
    1.1758443899e-02    1.0760210156e+05
    1.1778870597e-02    1.0865496094e+05
    1.1799318716e-02    1.0967371094e+05
    1.1819788255e-02    1.1058413281e+05
    1.1840280145e-02    1.1131821094e+05
    1.1860790662e-02    1.1182246094e+05
    1.1881321669e-02    1.1207264844e+05
    1.1901874095e-02    1.1206671875e+05
    1.1922447011e-02    1.1182550000e+05
    1.1943042278e-02    1.1138686719e+05
    1.1963658035e-02    1.1079552344e+05
    1.1984295212e-02    1.1009871094e+05
    1.2004952878e-02    1.0935435156e+05
    1.2025631964e-02    1.0861127344e+05
    1.2046331540e-02    1.0791978906e+05
    1.2067052536e-02    1.0730639844e+05
    1.2087795883e-02    1.0679421875e+05
    1.2108558789e-02    1.0636174219e+05
    1.2129344046e-02    1.0599082031e+05
    1.2150149792e-02    1.0565732031e+05
    1.2170976959e-02    1.0531783594e+05
    1.2191825546e-02    1.0493893750e+05
    1.2212695554e-02    1.0452121875e+05
    1.2233586982e-02    1.0405142969e+05
    1.2254500762e-02    1.0353474219e+05
    1.2275436893e-02    1.0298878906e+05
    1.2296394445e-02    1.0242728125e+05
    1.2317374349e-02    1.0185847656e+05
    1.2338375673e-02    1.0131025000e+05
    1.2359398417e-02    1.0080213281e+05
    1.2380442582e-02    1.0033877344e+05
    1.2401508167e-02    9.9929460938e+04
    1.2422595173e-02    9.9571773438e+04
    1.2443703599e-02    9.9255007812e+04
    1.2464834377e-02    9.8979039062e+04
    1.2485986575e-02    9.8732835938e+04
    1.2507158332e-02    9.8514070312e+04
    1.2528351508e-02    9.8332523438e+04
    1.2549565174e-02    9.8172851562e+04
    1.2570801191e-02    9.8045906250e+04
    1.2592058629e-02    9.7945539062e+04
    1.2613337487e-02    9.7879710938e+04
    1.2634636834e-02    9.7830320312e+04
    1.2655957602e-02    9.7808414062e+04
    1.2677297927e-02    9.7818664062e+04
    1.2698660605e-02    9.7856343750e+04
    1.2720043771e-02    9.7930710938e+04
    1.2741449289e-02    9.8028882812e+04
    1.2762876227e-02    9.8146656250e+04
    1.2784325518e-02    9.8281335938e+04
    1.2805794366e-02    9.8426335938e+04
    1.2827285565e-02    9.8573523438e+04
    1.2848797254e-02    9.8720992188e+04
    1.2870330364e-02    9.8865437500e+04
    1.2891885825e-02    9.9013648438e+04
    1.2913462706e-02    9.9166210938e+04
    1.2935061008e-02    9.9327625000e+04
    1.2956679799e-02    9.9507570312e+04
    1.2978320010e-02    9.9702843750e+04
    1.2999981642e-02    9.9912750000e+04
    1.3021663763e-02    1.0013672656e+05
    1.3043368235e-02    1.0035883594e+05
    1.3065092266e-02    1.0057402344e+05
    1.3086837716e-02    1.0077208594e+05
    1.3108605519e-02    1.0093691406e+05
    1.3130392879e-02    1.0107233594e+05
    1.3152201660e-02    1.0116482031e+05
    1.3174032792e-02    1.0121893750e+05
    1.3195885345e-02    1.0124247656e+05
    1.3217759319e-02    1.0124359375e+05
    1.3239653781e-02    1.0123214844e+05
    1.3261569664e-02    1.0121589844e+05
    1.3283506967e-02    1.0120646875e+05
    1.3305463828e-02    1.0121289844e+05
    1.3327440247e-02    1.0123297656e+05
    1.3349435292e-02    1.0127721094e+05
    1.3371448033e-02    1.0133128906e+05
    1.3393475674e-02    1.0139605469e+05
    1.3415516354e-02    1.0146208594e+05
    1.3437564485e-02    1.0153438281e+05
    1.3459613547e-02    1.0160739844e+05
    1.3481658883e-02    1.0167383594e+05
    1.3503690250e-02    1.0172921094e+05
    1.3525702059e-02    1.0177009375e+05
    1.3547683135e-02    1.0180308594e+05
    1.3569628820e-02    1.0182632031e+05
    1.3591531664e-02    1.0183562500e+05
    1.3613392599e-02    1.0183596094e+05
    1.3635210693e-02    1.0183535156e+05
    1.3656994328e-02    1.0182988281e+05
    1.3678749092e-02    1.0181985156e+05
    1.3700488023e-02    1.0180066406e+05
    1.3722228818e-02    1.0179228906e+05
    1.3743981719e-02    1.0177611719e+05
    1.3765762560e-02    1.0176522656e+05
    1.3787578791e-02    1.0175597656e+05
    1.3809437864e-02    1.0173808594e+05
    1.3831341639e-02    1.0171764844e+05
    1.3853288256e-02    1.0170403125e+05
    1.3875273056e-02    1.0168421094e+05
    1.3897285797e-02    1.0166316406e+05
    1.3919321820e-02    1.0164775781e+05
    1.3941374607e-02    1.0163502344e+05
    1.3963440433e-02    1.0161397656e+05
    1.3985517435e-02    1.0158749219e+05
    1.4007603750e-02    1.0156077344e+05
    1.4029704034e-02    1.0153786719e+05
    1.4051820152e-02    1.0150761719e+05
    1.4073957689e-02    1.0147971875e+05
    1.4096121304e-02    1.0144702344e+05
    1.4118315652e-02    1.0141267969e+05
    1.4140545391e-02    1.0137178906e+05
    1.4162814245e-02    1.0132897656e+05
    1.4185124077e-02    1.0129336719e+05
    1.4207473956e-02    1.0125425781e+05
    1.4229862019e-02    1.0121652344e+05
    1.4252286404e-02    1.0118075781e+05
    1.4274741523e-02    1.0114271094e+05
    1.4297228307e-02    1.0110466406e+05
    1.4319745824e-02    1.0107533594e+05
    1.4342290349e-02    1.0104568750e+05
    1.4364863746e-02    1.0101100781e+05
    1.4387467876e-02    1.0097771875e+05
    1.4410103671e-02    1.0094403125e+05
    1.4432771131e-02    1.0090889844e+05
    1.4455472119e-02    1.0087897656e+05
    1.4478209428e-02    1.0084887500e+05
    1.4500979334e-02    1.0082283594e+05
    1.4523783699e-02    1.0079327344e+05
    1.4546621591e-02    1.0076236719e+05
    1.4569494873e-02    1.0073185156e+05
    1.4592399821e-02    1.0070609375e+05
    1.4615339227e-02    1.0068674219e+05
    1.4638305642e-02    1.0067111719e+05
    1.4661304653e-02    1.0066700000e+05
    1.4684336260e-02    1.0064631250e+05
    1.4707398601e-02    1.0063552344e+05
    1.4730494469e-02    1.0061694531e+05
    1.4753622934e-02    1.0060483594e+05
    1.4776783995e-02    1.0059893750e+05
    1.4799979515e-02    1.0060460156e+05
    1.4823205769e-02    1.0061702344e+05
    1.4846466482e-02    1.0062837500e+05
    1.4869757928e-02    1.0063822656e+05
    1.4893081971e-02    1.0064900781e+05
    1.4916437678e-02    1.0066635156e+05
    1.4939822257e-02    1.0068558594e+05
    1.4963239431e-02    1.0070607031e+05
    1.4986685477e-02    1.0072803906e+05
    1.5010161325e-02    1.0075103906e+05
    1.5033668838e-02    1.0076775000e+05
    1.5057205223e-02    1.0079006250e+05
    1.5080772340e-02    1.0079694531e+05
    1.5104367398e-02    1.0081355469e+05
    1.5127992257e-02    1.0082840625e+05
    1.5151646920e-02    1.0083853125e+05
    1.5175330453e-02    1.0084762500e+05
    1.5199041925e-02    1.0086039844e+05
    1.5222782269e-02    1.0087181250e+05
    1.5246548690e-02    1.0088699219e+05
    1.5270343982e-02    1.0089778906e+05
    1.5294168144e-02    1.0090933594e+05
    1.5318016522e-02    1.0092378125e+05
    1.5341891907e-02    1.0093569531e+05
    1.5365792438e-02    1.0094477344e+05
    1.5389721841e-02    1.0095571875e+05
    1.5413676389e-02    1.0096846094e+05
    1.5437657945e-02    1.0098363281e+05
    1.5461664647e-02    1.0100033594e+05
    1.5485695563e-02    1.0101414844e+05
    1.5509752557e-02    1.0103485156e+05
    1.5533835627e-02    1.0105550000e+05
    1.5557944775e-02    1.0107658594e+05
    1.5582079068e-02    1.0109872656e+05
    1.5606240369e-02    1.0112197656e+05
    1.5630424023e-02    1.0114680469e+05
    1.5654634684e-02    1.0117875000e+05
    1.5678871423e-02    1.0121075781e+05
    1.5703132376e-02    1.0123971094e+05
    1.5727419406e-02    1.0126021094e+05
    1.5751728788e-02    1.0128989844e+05
    1.5776060522e-02    1.0131978125e+05
    1.5800418332e-02    1.0134087500e+05
    1.5824800357e-02    1.0136169531e+05
    1.5849204734e-02    1.0138196094e+05
    1.5873633325e-02    1.0139187500e+05
    1.5898084268e-02    1.0140591406e+05
    1.5922557563e-02    1.0141772656e+05
    1.5947058797e-02    1.0142442969e+05
    1.5971582383e-02    1.0143033594e+05
    1.5996130183e-02    1.0143524219e+05
    1.6020702198e-02    1.0143932031e+05
    1.6045298427e-02    1.0144225781e+05
    1.6069920734e-02    1.0144406250e+05
    1.6094569117e-02    1.0144246875e+05
    1.6119243577e-02    1.0143432031e+05
    1.6143942252e-02    1.0143216406e+05
    1.6168667004e-02    1.0143575781e+05
    1.6193419695e-02    1.0143425781e+05
    1.6218200326e-02    1.0142984375e+05
    1.6243007034e-02    1.0142955469e+05
    1.6267839819e-02    1.0143346875e+05
    1.6292702407e-02    1.0143772656e+05
    1.6317596659e-02    1.0144696094e+05
    1.6342513263e-02    1.0145553125e+05
    1.6367461532e-02    1.0146860156e+05
    1.6392435879e-02    1.0148557031e+05
    1.6417443752e-02    1.0150838281e+05
    1.6442479566e-02    1.0153100000e+05
    1.6467543319e-02    1.0155071094e+05
    1.6492636874e-02    1.0156364844e+05
    1.6517756507e-02    1.0158721094e+05
    1.6542907804e-02    1.0160327344e+05
    1.6568088904e-02    1.0162483594e+05
    1.6593271866e-02    1.0163787500e+05
    1.6618426889e-02    1.0164452344e+05
    1.6643559560e-02    1.0165562500e+05
    1.6668669879e-02    1.0166900000e+05
    1.6693757847e-02    1.0168315625e+05
    1.6718825325e-02    1.0168864844e+05
    1.6743874177e-02    1.0169908594e+05
    1.6768900678e-02    1.0170387500e+05
    1.6793908551e-02    1.0171210156e+05
    1.6818899661e-02    1.0172084375e+05
    1.6843874007e-02    1.0172328906e+05
    1.6868829727e-02    1.0172449219e+05
    1.6893770546e-02    1.0172424219e+05
    1.6918692738e-02    1.0172631250e+05
    1.6943598166e-02    1.0172252344e+05
    1.6968490556e-02    1.0171649219e+05
    1.6993366182e-02    1.0170396094e+05
    1.7018226907e-02    1.0169724219e+05
    1.7043072730e-02    1.0168465625e+05
    1.7067901790e-02    1.0167078906e+05
    1.7092714086e-02    1.0166541406e+05
    1.7117511481e-02    1.0165485156e+05
    1.7142292112e-02    1.0164456250e+05
    1.7167057842e-02    1.0164210156e+05
    1.7191808671e-02    1.0164497656e+05
    1.7216544598e-02    1.0164208594e+05
    1.7241263762e-02    1.0164641406e+05
    1.7265968025e-02    1.0164838281e+05
    1.7290659249e-02    1.0165816406e+05
    1.7315333709e-02    1.0166892969e+05
    1.7339993268e-02    1.0167809375e+05
    1.7364639789e-02    1.0168819531e+05
    1.7389267683e-02    1.0170124219e+05
    1.7413880676e-02    1.0171891406e+05
    1.7438478768e-02    1.0173346094e+05
    1.7463061959e-02    1.0176278906e+05
    1.7487626523e-02    1.0179581250e+05
    1.7512176186e-02    1.0184447656e+05
    1.7536709085e-02    1.0189658594e+05
    1.7561223358e-02    1.0195307031e+05
    1.7585720867e-02    1.0203364844e+05
    1.7610201612e-02    1.0212966406e+05
    1.7634663731e-02    1.0223316406e+05
    1.7659107223e-02    1.0235430469e+05
    1.7683532089e-02    1.0247639844e+05
    1.7707940191e-02    1.0260071094e+05
    1.7732329667e-02    1.0272215625e+05
    1.7756698653e-02    1.0282871094e+05
    1.7781050876e-02    1.0291053906e+05
    1.7805384472e-02    1.0296675000e+05
    1.7829699442e-02    1.0299141406e+05
    1.7853999510e-02    1.0297911719e+05
    1.7878280953e-02    1.0293890625e+05
    1.7902545631e-02    1.0285216406e+05
    1.7926793545e-02    1.0272138281e+05
    1.7951028422e-02    1.0255353906e+05
    1.7975246534e-02    1.0235164844e+05
    1.7999447882e-02    1.0211643750e+05
    1.8023636192e-02    1.0186150781e+05
    1.8047811463e-02    1.0160183594e+05
    1.8071975559e-02    1.0134560156e+05
    1.8096126616e-02    1.0111191406e+05
    1.8120266497e-02    1.0089865625e+05
    1.8144397065e-02    1.0071555469e+05
    1.8168520182e-02    1.0056271875e+05
    1.8192630261e-02    1.0043715625e+05
    1.8216732889e-02    1.0034808594e+05
    1.8240824342e-02    1.0028432031e+05
    1.8264908344e-02    1.0024978906e+05
    1.8288983032e-02    1.0024491406e+05
    1.8313048407e-02    1.0026513281e+05
    1.8337102607e-02    1.0031213281e+05
    1.8361147493e-02    1.0038158594e+05
    1.8385183066e-02    1.0047591406e+05
    1.8409207463e-02    1.0058661719e+05
    1.8433224410e-02    1.0070346094e+05
    1.8457230181e-02    1.0082960156e+05
    1.8481226638e-02    1.0096496094e+05
    1.8505210057e-02    1.0110350781e+05
    1.8529184163e-02    1.0124868750e+05
    1.8553148955e-02    1.0139425781e+05
    1.8577100709e-02    1.0153718750e+05
    1.8601041287e-02    1.0167860156e+05
    1.8624972552e-02    1.0181025000e+05
    1.8648892641e-02    1.0192511719e+05
    1.8672801554e-02    1.0203621094e+05
    1.8696699291e-02    1.0212977344e+05
    1.8720587716e-02    1.0221675000e+05
    1.8744463101e-02    1.0228752344e+05
    1.8768329173e-02    1.0234663281e+05
    1.8792184070e-02    1.0239922656e+05
    1.8816027790e-02    1.0245269531e+05
    1.8839860335e-02    1.0249925781e+05
    1.8863683566e-02    1.0252733594e+05
    1.8887493759e-02    1.0256067969e+05
    1.8911294639e-02    1.0258849219e+05
    1.8935086206e-02    1.0261212500e+05
    1.8958866596e-02    1.0262830469e+05
    1.8982635811e-02    1.0263602344e+05
    1.9006397575e-02    1.0264697656e+05
    1.9030146301e-02    1.0264905469e+05
    1.9053885713e-02    1.0264927344e+05
    1.9077615812e-02    1.0265164844e+05
    1.9101334736e-02    1.0266055469e+05
    1.9125042483e-02    1.0266496875e+05
    1.9148740917e-02    1.0266672656e+05
    1.9172428176e-02    1.0266017969e+05
    1.9196104258e-02    1.0265033594e+05
    1.9219771028e-02    1.0264491406e+05
    1.9243424758e-02    1.0262783594e+05
    1.9267069176e-02    1.0260786719e+05
    1.9290700555e-02    1.0258521094e+05
    1.9314322621e-02    1.0255889844e+05
    1.9337931648e-02    1.0252902344e+05
    1.9361529499e-02    1.0249525000e+05
    1.9385114312e-02    1.0245528906e+05
    1.9408687949e-02    1.0241763281e+05
    1.9432250410e-02    1.0238447656e+05
    1.9455801696e-02    1.0235341406e+05
    1.9479339942e-02    1.0231664844e+05
    1.9502865151e-02    1.0228788281e+05
    1.9526379183e-02    1.0225274219e+05
    1.9549878314e-02    1.0222490625e+05
    1.9573366269e-02    1.0220674219e+05
    1.9596841186e-02    1.0219303906e+05
    1.9620303065e-02    1.0218287500e+05
    1.9643751904e-02    1.0216682031e+05
    1.9667187706e-02    1.0215297656e+05
    1.9690606743e-02    1.0214108594e+05
    1.9714014605e-02    1.0212896875e+05
    1.9737409428e-02    1.0212310156e+05
    1.9760791212e-02    1.0212077344e+05
    1.9784159958e-02    1.0211240625e+05
    1.9807513803e-02    1.0210747656e+05
    1.9830854610e-02    1.0210511719e+05
    1.9854182377e-02    1.0209778906e+05
    1.9877497107e-02    1.0209240625e+05
    1.9900798798e-02    1.0208216406e+05
    1.9924087450e-02    1.0207616406e+05
    1.9947361201e-02    1.0207203906e+05
    1.9970623776e-02    1.0206332031e+05
    1.9993871450e-02    1.0206475000e+05
    2.0017107949e-02    1.0206102344e+05
    2.0040329546e-02    1.0205897656e+05
    2.0063538104e-02    1.0205164844e+05
    2.0086731762e-02    1.0204178906e+05
    2.0109914243e-02    1.0203617969e+05
    2.0133081824e-02    1.0202878125e+05
    2.0156236365e-02    1.0203139844e+05
    2.0179376006e-02    1.0202556250e+05
    2.0202504471e-02    1.0201992969e+05
    2.0225618035e-02    1.0201441406e+05
    2.0248720422e-02    1.0201321094e+05
    2.0271807909e-02    1.0201352344e+05
    2.0294882357e-02    1.0200877344e+05
    2.0317947492e-02    1.0200372656e+05
    2.0340997726e-02    1.0199780469e+05
    2.0364036784e-02    1.0198674219e+05
    2.0387060940e-02    1.0198465625e+05
    2.0410073921e-02    1.0197832031e+05
    2.0433073863e-02    1.0197260156e+05
    2.0456060767e-02    1.0197694531e+05
    2.0479036495e-02    1.0197185156e+05
    2.0501999184e-02    1.0196489844e+05
    2.0524948835e-02    1.0196193750e+05
    2.0547885448e-02    1.0195727344e+05
    2.0570809022e-02    1.0195353125e+05
    2.0593719557e-02    1.0196005469e+05
    2.0616617054e-02    1.0196719531e+05
    2.0639499649e-02    1.0196497656e+05
    2.0662369207e-02    1.0196274219e+05
    2.0685223863e-02    1.0196068750e+05
    2.0708063617e-02    1.0195927344e+05
    2.0730890334e-02    1.0196812500e+05
    2.0753700286e-02    1.0197828906e+05
    2.0776495337e-02    1.0197947656e+05
    2.0799275488e-02    1.0197975000e+05
    2.0822042599e-02    1.0196989844e+05
    2.0844791085e-02    1.0197821875e+05
    2.0867524669e-02    1.0197833594e+05
    2.0890241489e-02    1.0197906250e+05
    2.0912945271e-02    1.0199008594e+05
    2.0935632288e-02    1.0199189844e+05
    2.0958306268e-02    1.0198943750e+05
    2.0980965346e-02    1.0199593750e+05
    2.1003607661e-02    1.0199750781e+05
    2.1026238799e-02    1.0199671094e+05
    2.1048855036e-02    1.0200025000e+05
    2.1071458235e-02    1.0200260156e+05
    2.1094048396e-02    1.0201062500e+05
    2.1116625518e-02    1.0201739844e+05
    2.1139191464e-02    1.0202057031e+05
    2.1161744371e-02    1.0202363281e+05
    2.1184286103e-02    1.0202675781e+05
    2.1206818521e-02    1.0202961719e+05
    2.1229337901e-02    1.0203303906e+05
    2.1251846105e-02    1.0204199219e+05
    2.1274344996e-02    1.0204990625e+05
    2.1296832711e-02    1.0205375781e+05
    2.1319312975e-02    1.0204814844e+05
    2.1341778338e-02    1.0205153125e+05
    2.1364232525e-02    1.0205446875e+05
    2.1386675537e-02    1.0205722656e+05
    2.1409107372e-02    1.0205991406e+05
    2.1431528032e-02    1.0206250781e+05
    2.1453931928e-02    1.0206482031e+05
    2.1476324648e-02    1.0205746094e+05
    2.1498700604e-02    1.0205890625e+05
    2.1521063522e-02    1.0206014844e+05
    2.1543409675e-02    1.0206141406e+05
    2.1565740928e-02    1.0206347656e+05
    2.1588053554e-02    1.0206868750e+05
    2.1610351279e-02    1.0207403125e+05
    2.1632634103e-02    1.0207678906e+05
    2.1654898301e-02    1.0208356250e+05
    2.1677147597e-02    1.0208635156e+05
    2.1699378267e-02    1.0208872656e+05
    2.1721594036e-02    1.0209072656e+05
    2.1743793041e-02    1.0208903906e+05
    2.1765975282e-02    1.0209577344e+05
    2.1788140759e-02    1.0209836719e+05
    2.1810289472e-02    1.0210116406e+05
    2.1832419559e-02    1.0210203125e+05
    2.1854531020e-02    1.0210506250e+05
    2.1876627579e-02    1.0210650781e+05
    2.1898705512e-02    1.0210955469e+05
    2.1920768544e-02    1.0210714844e+05
    2.1942811087e-02    1.0210992969e+05
    2.1964838728e-02    1.0211560156e+05
    2.1986849606e-02    1.0211622656e+05
    2.2008845583e-02    1.0211910156e+05
    2.2030822933e-02    1.0212146094e+05
    2.2052785382e-02    1.0211374219e+05
    2.2074732929e-02    1.0211214844e+05
    2.2096665576e-02    1.0210725781e+05
    2.2118583322e-02    1.0210372656e+05
    2.2140489891e-02    1.0211246875e+05
    2.2162377834e-02    1.0210250000e+05
    2.2184254602e-02    1.0210157031e+05
    2.2206118330e-02    1.0210053906e+05
    2.2227969021e-02    1.0210134375e+05
    2.2249806672e-02    1.0210152344e+05
    2.2271629423e-02    1.0209683594e+05
    2.2293440998e-02    1.0209122656e+05
    2.2315241396e-02    1.0208646094e+05
    2.2337028757e-02    1.0208067969e+05
    2.2358803079e-02    1.0206884375e+05
    2.2380566224e-02    1.0206168750e+05
    2.2402318195e-02    1.0205377344e+05
    2.2424057126e-02    1.0204310156e+05
    2.2445784882e-02    1.0203144531e+05
    2.2467501462e-02    1.0201611719e+05
    2.2489206865e-02    1.0200503906e+05
    2.2510899231e-02    1.0198402344e+05
    2.2532582283e-02    1.0197157031e+05
    2.2554252297e-02    1.0195925781e+05
    2.2575911134e-02    1.0194358594e+05
    2.2597560659e-02    1.0193236719e+05
    2.2619199008e-02    1.0192000781e+05
    2.2640828043e-02    1.0190322656e+05
    2.2662445903e-02    1.0189933594e+05
    2.2684050724e-02    1.0189227344e+05
    2.2705646232e-02    1.0188756250e+05
    2.2727232426e-02    1.0189066406e+05
    2.2748809308e-02    1.0190053906e+05
    2.2770375013e-02    1.0191328125e+05
    2.2791929543e-02    1.0191912500e+05
    2.2813472897e-02    1.0193639844e+05
    2.2835006937e-02    1.0196071094e+05
    2.2856531665e-02    1.0198153906e+05
    2.2878047079e-02    1.0199888281e+05
    2.2899549454e-02    1.0202322656e+05
    2.2921044379e-02    1.0204937500e+05
    2.2942528129e-02    1.0207386719e+05
    2.2964000702e-02    1.0209928906e+05
    2.2985465825e-02    1.0212764844e+05
    2.3006917909e-02    1.0215647656e+05
    2.3028360680e-02    1.0217639844e+05
    2.3049792275e-02    1.0220018750e+05
    2.3071214557e-02    1.0222212500e+05
    2.3092625663e-02    1.0224721094e+05
    2.3114029318e-02    1.0226492969e+05
    2.3135419935e-02    1.0228197656e+05
    2.3156799376e-02    1.0229803125e+05
    2.3178169504e-02    1.0231347656e+05
    2.3199530318e-02    1.0233224219e+05
    2.3220879957e-02    1.0234628125e+05
    2.3242218420e-02    1.0235518750e+05
    2.3263547570e-02    1.0236191406e+05
    2.3284865543e-02    1.0237261719e+05
    2.3306174204e-02    1.0239139844e+05
    2.3327469826e-02    1.0240025000e+05
    2.3348756135e-02    1.0240419531e+05
    2.3370031267e-02    1.0240564844e+05
    2.3391297087e-02    1.0241075781e+05
    2.3412553594e-02    1.0241505469e+05
    2.3433798924e-02    1.0241850781e+05
    2.3455033079e-02    1.0242083594e+05
    2.3476256058e-02    1.0242231250e+05
    2.3497469723e-02    1.0242046875e+05
    2.3518672213e-02    1.0241738281e+05
    2.3539865389e-02    1.0241597656e+05
    2.3561049253e-02    1.0241836719e+05
    2.3582221940e-02    1.0240484375e+05
    2.3603385314e-02    1.0239927344e+05
    2.3624535650e-02    1.0238382031e+05
    2.3645676672e-02    1.0236965625e+05
    2.3666808382e-02    1.0235991406e+05
    2.3687927052e-02    1.0234260156e+05
    2.3709038273e-02    1.0232487500e+05
    2.3730138317e-02    1.0231202344e+05
    2.3751227185e-02    1.0229375781e+05
    2.3772306740e-02    1.0227521875e+05
    2.3793375120e-02    1.0224675000e+05
    2.3814432323e-02    1.0222277344e+05
    2.3835480213e-02    1.0219733594e+05
    2.3856516927e-02    1.0216846094e+05
    2.3877544329e-02    1.0213741406e+05
    2.3898560554e-02    1.0209989844e+05
    2.3919565603e-02    1.0206622656e+05
    2.3940561339e-02    1.0203139844e+05
    2.3961545900e-02    1.0199112500e+05
    2.3982519284e-02    1.0195338281e+05
    2.4003483355e-02    1.0191449219e+05
    2.4024436250e-02    1.0187460156e+05
    2.4045377970e-02    1.0184050781e+05
    2.4066310376e-02    1.0180835156e+05
    2.4087233469e-02    1.0178278125e+05
    2.4108145386e-02    1.0176017969e+05
    2.4129044265e-02    1.0175744531e+05
    2.4149935693e-02    1.0175689844e+05
    2.4170814082e-02    1.0176302344e+05
    2.4191683158e-02    1.0178246094e+05
    2.4212542921e-02    1.0180439844e+05
    2.4233391508e-02    1.0183496094e+05
    2.4254228920e-02    1.0187869531e+05
    2.4275057018e-02    1.0191139844e+05
    2.4295873940e-02    1.0195096094e+05
    2.4316681549e-02    1.0199371875e+05
    2.4337477982e-02    1.0203221094e+05
    2.4358265102e-02    1.0206578906e+05
    2.4379042909e-02    1.0210699219e+05
    2.4399809539e-02    1.0214281250e+05
    2.4420566857e-02    1.0217318750e+05
    2.4441312999e-02    1.0220092969e+05
    2.4462047964e-02    1.0223137500e+05
    2.4482775480e-02    1.0225278906e+05
    2.4503491819e-02    1.0227239844e+05
    2.4524198845e-02    1.0229167969e+05
    2.4544894695e-02    1.0230371875e+05
    2.4565581232e-02    1.0232453125e+05
    2.4586258456e-02    1.0233572656e+05
    2.4606924504e-02    1.0234590625e+05
    2.4627581239e-02    1.0235489844e+05
    2.4648228660e-02    1.0236332031e+05
    2.4668866768e-02    1.0238060156e+05
    2.4689495564e-02    1.0238843750e+05
    2.4710113183e-02    1.0239546094e+05
    2.4730721489e-02    1.0240117969e+05
    2.4751318619e-02    1.0240580469e+05
    2.4771906435e-02    1.0241096094e+05
    2.4792486802e-02    1.0241785156e+05
    2.4813055992e-02    1.0242155469e+05
    2.4833614007e-02    1.0242105469e+05
    2.4854162708e-02    1.0241397656e+05
    2.4874702096e-02    1.0241944531e+05
    2.4895232171e-02    1.0241410156e+05
    2.4915752932e-02    1.0240240625e+05
    2.4936262518e-02    1.0239033594e+05
    2.4956764653e-02    1.0238056250e+05
    2.4977253750e-02    1.0236925000e+05
    2.4997735396e-02    1.0235674219e+05
    2.5018205866e-02    1.0234321875e+05
    2.5038668886e-02    1.0233078906e+05
    2.5059120730e-02    1.0231521875e+05
    2.5079563260e-02    1.0230063281e+05
    2.5099996477e-02    1.0228828906e+05
    2.5120420381e-02    1.0226994531e+05
    2.5140833110e-02    1.0226003906e+05
    2.5161236525e-02    1.0224041406e+05
    2.5181630626e-02    1.0223002344e+05
    2.5202017277e-02    1.0221567969e+05
    2.5222390890e-02    1.0220085156e+05
    2.5242757052e-02    1.0219422656e+05
    2.5263112038e-02    1.0218996094e+05
    2.5283459574e-02    1.0218336719e+05
    2.5303795934e-02    1.0217493750e+05
    2.5324124843e-02    1.0216736719e+05
    2.5344440714e-02    1.0216943750e+05
    2.5364749134e-02    1.0216293750e+05
    2.5385048240e-02    1.0216188281e+05
    2.5405339897e-02    1.0215965625e+05
    2.5425618514e-02    1.0216302344e+05
    2.5445887819e-02    1.0215766406e+05
    2.5466147810e-02    1.0215277344e+05
    2.5486400351e-02    1.0215740625e+05
    2.5506639853e-02    1.0215294531e+05
    2.5526873767e-02    1.0215127344e+05
    2.5547094643e-02    1.0215396094e+05
    2.5567308068e-02    1.0215044531e+05
    2.5587510318e-02    1.0215237500e+05
    2.5607703254e-02    1.0215158594e+05
    2.5627886876e-02    1.0214158594e+05
    2.5648061186e-02    1.0214108594e+05
    2.5668226182e-02    1.0214597656e+05
    2.5688380003e-02    1.0214428906e+05
    2.5708526373e-02    1.0214271094e+05
    2.5728661567e-02    1.0214616406e+05
    2.5748789310e-02    1.0214897656e+05
    2.5768904015e-02    1.0214797656e+05
    2.5789011270e-02    1.0214722656e+05
    2.5809109211e-02    1.0214927344e+05
    2.5829195976e-02    1.0215143750e+05
    2.5849273428e-02    1.0215513281e+05
    2.5869343430e-02    1.0215525000e+05
    2.5889402255e-02    1.0215602344e+05
    2.5909451768e-02    1.0215697656e+05
    2.5929493830e-02    1.0215803906e+05
    2.5949522853e-02    1.0216453906e+05
    2.5969544426e-02    1.0216603125e+05
    2.5989556685e-02    1.0217161719e+05
    2.6009559631e-02    1.0217365625e+05
    2.6029553264e-02    1.0218121094e+05
    2.6049537584e-02    1.0218121875e+05
    2.6069512591e-02    1.0218092969e+05
    2.6089478284e-02    1.0218288281e+05
    2.6109432802e-02    1.0218464844e+05
    2.6129379869e-02    1.0219153125e+05
    2.6149315760e-02    1.0219317969e+05
    2.6169244200e-02    1.0218947656e+05
    2.6189163327e-02    1.0219065625e+05
    2.6209073141e-02    1.0219174219e+05
    2.6228975505e-02    1.0219289844e+05
    2.6248866692e-02    1.0219399219e+05
    2.6268748567e-02    1.0219485156e+05
    2.6288621128e-02    1.0219540625e+05
    2.6308484375e-02    1.0219347656e+05
    2.6328338310e-02    1.0219341406e+05
    2.6348184794e-02    1.0219331250e+05
    2.6368021965e-02    1.0218614844e+05
    2.6387847960e-02    1.0218636719e+05
    2.6407664642e-02    1.0219613281e+05
    2.6427472010e-02    1.0219696094e+05
    2.6447271928e-02    1.0219127344e+05
    2.6467062533e-02    1.0218930469e+05
    2.6486843824e-02    1.0219433594e+05
    2.6506617665e-02    1.0219218750e+05
    2.6526380330e-02    1.0219558594e+05
    2.6546133682e-02    1.0219090625e+05
    2.6565877721e-02    1.0219427344e+05
    2.6585612446e-02    1.0219239844e+05
    2.6605339721e-02    1.0219278906e+05
    2.6625057682e-02    1.0219578906e+05
    2.6644766331e-02    1.0219628906e+05
    2.6664465666e-02    1.0219389844e+05
    2.6684155688e-02    1.0219407031e+05
    2.6703836396e-02    1.0219925000e+05
    2.6723509654e-02    1.0219939844e+05
    2.6743173599e-02    1.0219438281e+05
    2.6762828231e-02    1.0219455469e+05
    2.6782475412e-02    1.0219499219e+05
    2.6802113280e-02    1.0219538281e+05
    2.6821739972e-02    1.0219590625e+05
    2.6841359213e-02    1.0219897656e+05
    2.6860967278e-02    1.0219935156e+05
    2.6880569756e-02    1.0219728125e+05
    2.6900164783e-02    1.0220316406e+05
    2.6919748634e-02    1.0219875781e+05
    2.6939325035e-02    1.0220441406e+05
    2.6958892122e-02    1.0219971094e+05
    2.6978449896e-02    1.0220257031e+05
    2.6997998357e-02    1.0220025000e+05
    2.7017539367e-02    1.0220308594e+05
    2.7037071064e-02    1.0220375000e+05
    2.7056595311e-02    1.0220186719e+05
    2.7076110244e-02    1.0220238281e+05
    2.7095617726e-02    1.0220253125e+05
    2.7115115896e-02    1.0220294531e+05
    2.7134604752e-02    1.0220600000e+05
    2.7154086158e-02    1.0220899219e+05
    2.7173558250e-02    1.0220396875e+05
    2.7193021029e-02    1.0220391406e+05
    2.7212476358e-02    1.0220385156e+05
    2.7231922373e-02    1.0220383594e+05
    2.7251357213e-02    1.0220399219e+05
    2.7270786464e-02    1.0220408594e+05
    2.7290204540e-02    1.0220403125e+05
    2.7309613302e-02    1.0220392969e+05
    2.7329014614e-02    1.0220380469e+05
    2.7348404750e-02    1.0220367969e+05
    2.7367785573e-02    1.0220364844e+05
    2.7387158945e-02    1.0220397656e+05
    2.7406521142e-02    1.0220439844e+05
    2.7425874025e-02    1.0220468750e+05
    2.7445219457e-02    1.0220500781e+05
    2.7464553714e-02    1.0220783594e+05
    2.7483878657e-02    1.0220546875e+05
    2.7503194287e-02    1.0220578906e+05
    2.7522502467e-02    1.0220622656e+05
    2.7541799471e-02    1.0220692969e+05
    2.7561087161e-02    1.0221032031e+05
    2.7580365539e-02    1.0220856250e+05
    2.7599634603e-02    1.0221178906e+05
    2.7618894354e-02    1.0220975000e+05
    2.7638144791e-02    1.0221958594e+05
    2.7657385916e-02    1.0221103125e+05
    2.7676619589e-02    1.0221635156e+05
    2.7695843950e-02    1.0221397656e+05
    2.7715058997e-02    1.0221416406e+05
    2.7734262869e-02    1.0221184375e+05
    2.7753459290e-02    1.0221225000e+05
    2.7772648260e-02    1.0221717969e+05
    2.7791827917e-02    1.0221305469e+05
    2.7810998261e-02    1.0221341406e+05
    2.7830159292e-02    1.0221350781e+05
    2.7849311009e-02    1.0221625781e+05
    2.7868455276e-02    1.0221336719e+05
    2.7887590230e-02    1.0221274219e+05
    2.7906717733e-02    1.0221177344e+05
    2.7925835922e-02    1.0221035156e+05
    2.7944946662e-02    1.0220485156e+05
    2.7964048088e-02    1.0220325000e+05
    2.7983140200e-02    1.0220567969e+05
    2.8002224863e-02    1.0220417969e+05
    2.8021300212e-02    1.0219885156e+05
    2.8040368110e-02    1.0220183594e+05
    2.8059426695e-02    1.0220080469e+05
    2.8078475967e-02    1.0219574219e+05
    2.8097519651e-02    1.0219491406e+05
    2.8116554022e-02    1.0219624219e+05
    2.8135580942e-02    1.0219572656e+05
    2.8154598549e-02    1.0219738281e+05
    2.8173606843e-02    1.0219716406e+05
    2.8192607686e-02    1.0219489844e+05
    2.8211599216e-02    1.0219472656e+05
    2.8230583295e-02    1.0219640625e+05
    2.8249559924e-02    1.0219610156e+05
    2.8268527240e-02    1.0219572656e+05
    2.8287487105e-02    1.0219547656e+05
    2.8306435794e-02    1.0219534375e+05
    2.8325378895e-02    1.0219522656e+05
    2.8344312683e-02    1.0219514844e+05
    2.8363237157e-02    1.0219494531e+05
    2.8382156044e-02    1.0219472656e+05
    2.8401065618e-02    1.0219432031e+05
    2.8419965878e-02    1.0219397656e+05
    2.8438858688e-02    1.0219357031e+05
    2.8457742184e-02    1.0219331250e+05
    2.8476616368e-02    1.0219311719e+05
    2.8495483100e-02    1.0219314844e+05
    2.8514338657e-02    1.0219303125e+05
    2.8533160686e-02    1.0219266406e+05
    2.8551930562e-02    1.0219214844e+05
    2.8570635244e-02    1.0218972656e+05
    2.8589271009e-02    1.0218946094e+05
    2.8607837856e-02    1.0218941406e+05
    2.8626350686e-02    1.0218886719e+05
    2.8644818813e-02    1.0218643750e+05
    2.8663259000e-02    1.0219178906e+05
    2.8681686148e-02    1.0218931250e+05
    2.8700113297e-02    1.0218927344e+05
    2.8718546033e-02    1.0219191406e+05
    2.8736986220e-02    1.0219189844e+05
    2.8755431995e-02    1.0218724219e+05
    2.8773877770e-02    1.0218749219e+05
    2.8792314231e-02    1.0219125781e+05
    2.8810730204e-02    1.0219093750e+05
    2.8829116374e-02    1.0219069531e+05
    2.8847465292e-02    1.0219075781e+05
    2.8865773231e-02    1.0219089844e+05
    2.8884036466e-02    1.0219106250e+05
    2.8902258724e-02    1.0219130469e+05
    2.8920443729e-02    1.0219177344e+05
    2.8938598931e-02    1.0219250781e+05
    2.8956729919e-02    1.0219868750e+05
    2.8974846005e-02    1.0219985156e+05
    2.8992949054e-02    1.0219594531e+05
    2.9011042789e-02    1.0219727344e+05
    2.9029129073e-02    1.0220106250e+05
    2.9047204182e-02    1.0220483594e+05
    2.9065268114e-02    1.0220339844e+05
    2.9083315283e-02    1.0220182031e+05
    2.9101338238e-02    1.0220802344e+05
    2.9119335115e-02    1.0220903906e+05
    2.9137304053e-02    1.0220499219e+05
    2.9155241325e-02    1.0220603906e+05
    2.9173148796e-02    1.0220706250e+05
    2.9191024601e-02    1.0221074219e+05
    2.9208874330e-02    1.0221458594e+05
    2.9226697981e-02    1.0221614844e+05
    2.9244501144e-02    1.0221521094e+05
    2.9262285680e-02    1.0221425000e+05
    2.9280053452e-02    1.0222072656e+05
    2.9297806323e-02    1.0222203906e+05
    2.9315544292e-02    1.0222316406e+05
    2.9333265498e-02    1.0222158594e+05
    2.9350971803e-02    1.0222250781e+05
    2.9368655756e-02    1.0222337500e+05
    2.9386319220e-02    1.0222171094e+05
    2.9403960332e-02    1.0222289844e+05
    2.9421577230e-02    1.0222421875e+05
    2.9439168051e-02    1.0222555469e+05
    2.9456734657e-02    1.0223208594e+05
    2.9474277049e-02    1.0223084375e+05
    2.9491795227e-02    1.0222964844e+05
    2.9509292915e-02    1.0223110156e+05
    2.9526771978e-02    1.0223267969e+05
    2.9544232413e-02    1.0223407031e+05
    2.9561674222e-02    1.0223515625e+05
    2.9579099268e-02    1.0223608594e+05
    2.9596509412e-02    1.0223478906e+05
    2.9613900930e-02    1.0223328906e+05
    2.9631273821e-02    1.0223352344e+05
    2.9648626223e-02    1.0222846094e+05
    2.9665958136e-02    1.0222806250e+05
    2.9683271423e-02    1.0221821094e+05
    2.9700560495e-02    1.0221728125e+05
    2.9717829078e-02    1.0221209375e+05
    2.9735075310e-02    1.0220803906e+05
    2.9752301052e-02    1.0220399219e+05
    2.9769508168e-02    1.0220235156e+05
    2.9786696658e-02    1.0220065625e+05
    2.9803866521e-02    1.0219832031e+05
    2.9821017757e-02    1.0218655469e+05
    2.9838152230e-02    1.0218353906e+05
    2.9855269939e-02    1.0217105469e+05
    2.9872370884e-02    1.0216752344e+05
    2.9889453202e-02    1.0216167969e+05
    2.9906518757e-02    1.0215562500e+05
    2.9923565686e-02    1.0215128906e+05
    2.9940593988e-02    1.0214166406e+05
    2.9957601801e-02    1.0213689844e+05
    2.9974590987e-02    1.0213202344e+05
    2.9991561547e-02    1.0211763281e+05
    3.0008511618e-02    1.0211234375e+05
    3.0025444925e-02    1.0210714844e+05
    3.0042361468e-02    1.0210727344e+05
    3.0059259385e-02    1.0210710156e+05
    3.0076142401e-02    1.0211269531e+05
    3.0093006790e-02    1.0211246875e+05
    3.0109854415e-02    1.0211714844e+05
    3.0126683414e-02    1.0212513281e+05
    3.0143497512e-02    1.0212953125e+05
    3.0160292983e-02    1.0213343750e+05
    3.0177071691e-02    1.0214319531e+05
    3.0193833634e-02    1.0214421094e+05
    3.0210576952e-02    1.0215494531e+05
    3.0227303505e-02    1.0215689844e+05
    3.0244011432e-02    1.0216864844e+05
    3.0260702595e-02    1.0217191406e+05
    3.0277376994e-02    1.0218499219e+05
    3.0294034630e-02    1.0218949219e+05
    3.0310675502e-02    1.0219903906e+05
    3.0327299610e-02    1.0220585156e+05
    3.0343905091e-02    1.0221285156e+05
    3.0360495672e-02    1.0221788281e+05
    3.0377071351e-02    1.0221871094e+05
    3.0393628404e-02    1.0222365625e+05
    3.0410168692e-02    1.0222844531e+05
    3.0426690355e-02    1.0222778125e+05
    3.0443195254e-02    1.0223214844e+05
    3.0459685251e-02    1.0223632031e+05
    3.0476156622e-02    1.0224017969e+05
    3.0492611229e-02    1.0224378906e+05
    3.0509050936e-02    1.0223785156e+05
    3.0525473878e-02    1.0223635156e+05
    3.0541881919e-02    1.0223332031e+05
    3.0558273196e-02    1.0223065625e+05
    3.0574647710e-02    1.0222646875e+05
    3.0591005459e-02    1.0222264844e+05
    3.0607348308e-02    1.0221731250e+05
    3.0623674393e-02    1.0221672656e+05
    3.0639985576e-02    1.0221396094e+05
    3.0656279996e-02    1.0220589844e+05
    3.0672557652e-02    1.0220472656e+05
    3.0688818544e-02    1.0220321094e+05
    3.0705062672e-02    1.0219732031e+05
    3.0721291900e-02    1.0218989844e+05
    3.0737506226e-02    1.0218309375e+05
    3.0753703788e-02    1.0217484375e+05
    3.0769886449e-02    1.0217152344e+05
    3.0786054209e-02    1.0216827344e+05
    3.0802207068e-02    1.0216535156e+05
    3.0818343163e-02    1.0216524219e+05
    3.0834466219e-02    1.0216514844e+05
    3.0850572512e-02    1.0216685156e+05
    3.0866663903e-02    1.0216264844e+05
    3.0882738531e-02    1.0215352344e+05
    3.0898798257e-02    1.0215147656e+05
    3.0914843082e-02    1.0214921094e+05
    3.0930871144e-02    1.0214674219e+05
    3.0946886167e-02    1.0213997656e+05
    3.0962884426e-02    1.0214141406e+05
    3.0978867784e-02    1.0213922656e+05
    3.0994836241e-02    1.0213739844e+05
    3.1010789797e-02    1.0214103906e+05
    3.1026728451e-02    1.0213999219e+05
    3.1042650342e-02    1.0214347656e+05
    3.1058559194e-02    1.0214310156e+05
    3.1074455008e-02    1.0214324219e+05
    3.1090334058e-02    1.0214371094e+05
    3.1106200069e-02    1.0214950000e+05
    3.1122051179e-02    1.0215057031e+05
    3.1137887388e-02    1.0215605469e+05
    3.1153710559e-02    1.0215772656e+05
    3.1169516966e-02    1.0215946875e+05
    3.1185310334e-02    1.0216640625e+05
    3.1201090664e-02    1.0216836719e+05
    3.1216854230e-02    1.0217033594e+05
    3.1232602894e-02    1.0217230469e+05
    3.1248336658e-02    1.0217417969e+05
    3.1264055520e-02    1.0218041406e+05
    3.1279761344e-02    1.0218271094e+05
    3.1295452267e-02    1.0218539844e+05
    3.1311132014e-02    1.0218825000e+05
    3.1326796860e-02    1.0219625781e+05
    3.1342446804e-02    1.0220334375e+05
    3.1358085573e-02    1.0220639844e+05
    3.1373709440e-02    1.0220943750e+05
    3.1389318407e-02    1.0221252344e+05
    3.1404916197e-02    1.0221531250e+05
    3.1420499086e-02    1.0221821094e+05
    3.1436067075e-02    1.0222102344e+05
    3.1451620162e-02    1.0222390625e+05
    3.1467158347e-02    1.0222678906e+05
    3.1482685357e-02    1.0223490625e+05
    3.1498193741e-02    1.0224232031e+05
    3.1513694674e-02    1.0224578906e+05
    3.1529176980e-02    1.0224937500e+05
    3.1544648111e-02    1.0225291406e+05
    3.1560108066e-02    1.0225656250e+05
    3.1575553119e-02    1.0226021875e+05
    3.1590986997e-02    1.0226384375e+05
    3.1606405973e-02    1.0226715625e+05
    3.1621813774e-02    1.0227025000e+05
    3.1637206674e-02    1.0227300781e+05
    3.1652588397e-02    1.0226866406e+05
    3.1667951494e-02    1.0226821094e+05
    3.1683307141e-02    1.0226997656e+05
    3.1698647887e-02    1.0227161719e+05
    3.1713977456e-02    1.0227309375e+05
    3.1729292125e-02    1.0227439844e+05
    3.1744595617e-02    1.0226640625e+05
    3.1759884208e-02    1.0226746875e+05
    3.1775161624e-02    1.0226837500e+05
    3.1790427864e-02    1.0226924219e+05
    3.1805675477e-02    1.0227025000e+05
    3.1820915639e-02    1.0227138281e+05
    3.1836140901e-02    1.0227272656e+05
    3.1851354986e-02    1.0227408594e+05
    3.1866557896e-02    1.0227546094e+05
    3.1881745905e-02    1.0227671875e+05
    3.1896922737e-02    1.0227794531e+05
    3.1912088394e-02    1.0227919531e+05
    3.1927239150e-02    1.0228021875e+05
    3.1942378730e-02    1.0228094531e+05
    3.1957507133e-02    1.0228135156e+05
    3.1972620636e-02    1.0227712500e+05
    3.1987726688e-02    1.0227167969e+05
    3.2002814114e-02    1.0227094531e+05
    3.2017890364e-02    1.0227003125e+05
    3.2032959163e-02    1.0226477344e+05
    3.2048013061e-02    1.0225853125e+05
    3.2063052058e-02    1.0225744531e+05
    3.2078083605e-02    1.0225652344e+05
    3.2093103975e-02    1.0225591406e+05
    3.2108109444e-02    1.0226274219e+05
    3.2123107463e-02    1.0226449219e+05
    3.2138090581e-02    1.0226433594e+05
    3.2153062522e-02    1.0226396094e+05
    3.2168023288e-02    1.0226328906e+05
    3.2182972878e-02    1.0225307031e+05
    3.2197911292e-02    1.0225169531e+05
    3.2212834805e-02    1.0225014844e+05
    3.2227750868e-02    1.0224839844e+05
    3.2242652029e-02    1.0224666406e+05
    3.2257542014e-02    1.0224484375e+05
    3.2272424549e-02    1.0224308594e+05
    3.2287292182e-02    1.0223943750e+05
    3.2302148640e-02    1.0223778906e+05
    3.2316997647e-02    1.0223399219e+05
    3.2331831753e-02    1.0223208594e+05
    3.2346658409e-02    1.0223003906e+05
    3.2361470163e-02    1.0222278906e+05
    3.2376270741e-02    1.0222281250e+05
    3.2391063869e-02    1.0222091406e+05
    3.2405842096e-02    1.0221716406e+05
    3.2420612872e-02    1.0221564844e+05
    3.2435368747e-02    1.0221402344e+05
    3.2450113446e-02    1.0221230469e+05
    3.2464850694e-02    1.0221053125e+05
    3.2479573041e-02    1.0220883594e+05
    3.2494287938e-02    1.0220696875e+05
    3.2508991659e-02    1.0220497656e+05
    3.2523684204e-02    1.0220296094e+05
    3.2538365573e-02    1.0220347656e+05
    3.2553035766e-02    1.0219875781e+05
    3.2567698509e-02    1.0219669531e+05
    3.2582346350e-02    1.0219472656e+05
    3.2596986741e-02    1.0219285156e+05
    3.2611619681e-02    1.0219114844e+05
    3.2626237720e-02    1.0218935156e+05
    3.2640848309e-02    1.0218550781e+05
    3.2655447721e-02    1.0218571094e+05
    3.2670035958e-02    1.0218378906e+05
    3.2684613019e-02    1.0218196094e+05
    3.2699178904e-02    1.0218017969e+05
    3.2713737339e-02    1.0217857031e+05
    3.2728284597e-02    1.0217716406e+05
    3.2742820680e-02    1.0217585156e+05
    3.2757349312e-02    1.0217468750e+05
    3.2771866769e-02    1.0217389844e+05
    3.2786373049e-02    1.0217846875e+05
    3.2800871879e-02    1.0218246094e+05
    3.2815355808e-02    1.0218260156e+05
    3.2829832286e-02    1.0218291406e+05
    3.2844301313e-02    1.0218110156e+05
    3.2858755440e-02    1.0218112500e+05
    3.2873202115e-02    1.0218096875e+05
    3.2887637615e-02    1.0217858594e+05
    3.2902065665e-02    1.0217816406e+05
    3.2916482538e-02    1.0217991406e+05
    3.2930891961e-02    1.0217981250e+05
    3.2945290208e-02    1.0218196094e+05
    3.2959677279e-02    1.0218242969e+05
    3.2974056900e-02    1.0218324219e+05
    3.2988425344e-02    1.0218434375e+05
    3.3002786338e-02    1.0219072656e+05
    3.3017136157e-02    1.0219227344e+05
    3.3031478524e-02    1.0219802344e+05
    3.3045809716e-02    1.0219746094e+05
    3.3060129732e-02    1.0219881250e+05
    3.3074442297e-02    1.0219792969e+05
    3.3088747412e-02    1.0219652344e+05
    3.3103041351e-02    1.0219744531e+05
    3.3117324114e-02    1.0219839844e+05
    3.3131599426e-02    1.0219935156e+05
    3.3145863563e-02    1.0220275000e+05
    3.3160120249e-02    1.0220371094e+05
    3.3174365759e-02    1.0220683594e+05
    3.3188603818e-02    1.0220792969e+05
    3.3202830702e-02    1.0220916406e+05
    3.3217050135e-02    1.0220832031e+05
    3.3231258392e-02    1.0221103906e+05
    3.3245459199e-02    1.0220750000e+05
    3.3259648830e-02    1.0221308594e+05
    3.3273831010e-02    1.0220725000e+05
    3.3288005739e-02    1.0221511719e+05
    3.3302169293e-02    1.0221381250e+05
    3.3316325396e-02    1.0221459375e+05
    3.3330474049e-02    1.0221535156e+05
    3.3344611526e-02    1.0221613281e+05
    3.3358741552e-02    1.0221439844e+05
    3.3372864127e-02    1.0221264844e+05
    3.3386975527e-02    1.0221358594e+05
    3.3401079476e-02    1.0221432031e+05
    3.3415172249e-02    1.0221766406e+05
    3.3429257572e-02    1.0221596875e+05
    3.3443335444e-02    1.0221689844e+05
    3.3457405865e-02    1.0221765625e+05
    3.3471468836e-02    1.0221844531e+05
    3.3485524356e-02    1.0221910156e+05
    3.3499568701e-02    1.0221756250e+05
    3.3513605595e-02    1.0221791406e+05
    3.3527631313e-02    1.0222019531e+05
    3.3541653305e-02    1.0222035156e+05
    3.3555664122e-02    1.0222046875e+05
    3.3569667488e-02    1.0222060156e+05
    3.3583663404e-02    1.0222089844e+05
    3.3597648144e-02    1.0222125000e+05
    3.3611625433e-02    1.0222183594e+05
    3.3625595272e-02    1.0222277344e+05
    3.3639557660e-02    1.0222396094e+05
    3.3653512597e-02    1.0222522656e+05
    3.3667460084e-02    1.0222660156e+05
    3.3681396395e-02    1.0222808594e+05
    3.3695328981e-02    1.0222959375e+05
    3.3709254116e-02    1.0223118750e+05
    3.3723168075e-02    1.0223278906e+05
    3.3737078309e-02    1.0223435156e+05
    3.3750977367e-02    1.0223850000e+05
    3.3764872700e-02    1.0224021875e+05
    3.3778760582e-02    1.0224177344e+05
    3.3792637289e-02    1.0224335156e+05
    3.3806510270e-02    1.0224238281e+05
    3.3820372075e-02    1.0224380469e+05
    3.3834230155e-02    1.0224778125e+05
    3.3848077059e-02    1.0224903906e+05
    3.3861916512e-02    1.0224783594e+05
    3.3875752240e-02    1.0224900781e+05
    3.3889576793e-02    1.0225017969e+05
    3.3903393894e-02    1.0225633594e+05
    3.3917203546e-02    1.0225238281e+05
    3.3931009471e-02    1.0225325781e+05
    3.3944804221e-02    1.0225415625e+05
    3.3958595246e-02    1.0225503906e+05
    3.3972378820e-02    1.0225577344e+05
    3.3986151218e-02    1.0225641406e+05
    3.3999919891e-02    1.0225694531e+05
    3.4013681114e-02    1.0225707031e+05
    3.4027434886e-02    1.0225260156e+05
    3.4041177481e-02    1.0224678906e+05
    3.4054916352e-02    1.0224565625e+05
    3.4068647772e-02    1.0224428906e+05
    3.4082375467e-02    1.0224265625e+05
    3.4096091986e-02    1.0224293750e+05
    3.4109804779e-02    1.0223906250e+05
    3.4123510122e-02    1.0223710156e+05
    3.4137208015e-02    1.0223503125e+05
    3.4150898457e-02    1.0223271094e+05
    3.4164581448e-02    1.0222503125e+05
    3.4178260714e-02    1.0221790625e+05
    3.4191932529e-02    1.0221450000e+05
    3.4205596894e-02    1.0221083594e+05
    3.4219253808e-02    1.0220694531e+05
    3.4232903272e-02    1.0220281250e+05
    3.4246545285e-02    1.0219860156e+05
    3.4260183573e-02    1.0219421094e+05
    3.4273810685e-02    1.0218983594e+05
    3.4287434071e-02    1.0218527344e+05
    3.4301050007e-02    1.0218066406e+05
    3.4314658493e-02    1.0217593750e+05
    3.4328263253e-02    1.0216191406e+05
    3.4341860563e-02    1.0215712500e+05
    3.4355450422e-02    1.0215240625e+05
    3.4369036555e-02    1.0214781250e+05
    3.4382611513e-02    1.0214602344e+05
    3.4396182746e-02    1.0214189844e+05
    3.4409742802e-02    1.0213808594e+05
    3.4423299134e-02    1.0213716406e+05
    3.4436848015e-02    1.0213394531e+05
    3.4450393170e-02    1.0213091406e+05
    3.4463927150e-02    1.0212812500e+05
    3.4477461129e-02    1.0212577344e+05
    3.4490987659e-02    1.0212572656e+05
    3.4504506737e-02    1.0212614844e+05
    3.4518022090e-02    1.0212724219e+05
    3.4531529993e-02    1.0212871875e+05
    3.4545030445e-02    1.0212791406e+05
    3.4558523446e-02    1.0212731250e+05
    3.4572008997e-02    1.0212716406e+05
    3.4585487098e-02    1.0212741406e+05
    3.4598957747e-02    1.0212831250e+05
    3.4612424672e-02    1.0213896875e+05
    3.4625884145e-02    1.0214097656e+05
    3.4639336169e-02    1.0214347656e+05
    3.4652780741e-02    1.0215314844e+05
    3.4666225314e-02    1.0215902344e+05
    3.4679658711e-02    1.0216255469e+05
    3.4693088382e-02    1.0216632031e+05
    3.4706510603e-02    1.0217027344e+05
    3.4719929099e-02    1.0217439844e+05
    3.4733340144e-02    1.0217859375e+05
    3.4746743739e-02    1.0218508594e+05
    3.4760143608e-02    1.0219183594e+05
    3.4773536026e-02    1.0220169531e+05
    3.4786924720e-02    1.0220660156e+05
    3.4800305963e-02    1.0221160156e+05
    3.4813679755e-02    1.0221859375e+05
    3.4827046096e-02    1.0222541406e+05
    3.4840408713e-02    1.0223019531e+05
    3.4853763878e-02    1.0223455469e+05
    3.4867111593e-02    1.0223657031e+05
    3.4880455583e-02    1.0223578906e+05
    3.4893795848e-02    1.0223677344e+05
    3.4907124937e-02    1.0224003906e+05
    3.4920454025e-02    1.0224306250e+05
    3.4933775663e-02    1.0224584375e+05
    3.4947093576e-02    1.0225109375e+05
    3.4960404038e-02    1.0225371094e+05
    3.4973710775e-02    1.0225357031e+05
    3.4987010062e-02    1.0225565625e+05
endcurve
