Curveplot
LS-DYNA keyword deck by LS-PrePost                          
Time
Pressure
Defined Connection
Pressure @ 52 #pts=1745
* Minval=     9.9087570312e+04 at time=         0.0155579448
* Maxval=     1.6952734375e+05 at time=         0.0066718445
    0.0000000000e+00    9.9999093750e+04
    3.3812357287e-05    9.9999093750e+04
    6.1326652940e-05    9.9998093750e+04
    8.9102875791e-05    9.9998101562e+04
    1.1682785407e-04    9.9999335938e+04
    1.4461828687e-04    9.9998445312e+04
    1.7236733402e-04    9.9998914062e+04
    2.0016246708e-04    1.0000861719e+05
    2.2795486439e-04    1.0000110156e+05
    2.5574557367e-04    1.0000103125e+05
    2.8353667585e-04    9.9996148438e+04
    3.1133697485e-04    9.9994648438e+04
    3.3912662184e-04    1.0000021094e+05
    3.6691734567e-04    1.0000041406e+05
    3.9470891352e-04    9.9999648438e+04
    4.2249175021e-04    1.0000014844e+05
    4.5027161832e-04    1.0000068750e+05
    4.7804549104e-04    1.0000125000e+05
    5.0581363030e-04    1.0000239844e+05
    5.3357944125e-04    1.0000353906e+05
    5.6134146871e-04    1.0000393750e+05
    5.8909942163e-04    1.0000387500e+05
    6.1685312539e-04    9.9994312500e+04
    6.4460188150e-04    9.9992632812e+04
    6.7234638846e-04    1.0000084375e+05
    7.0008635521e-04    1.0000140625e+05
    7.2782178177e-04    1.0000394531e+05
    7.5555208605e-04    1.0000287500e+05
    7.8327720985e-04    1.0000271094e+05
    8.1099680392e-04    1.0000119531e+05
    8.3871174138e-04    9.9990187500e+04
    8.6642213864e-04    9.9995414062e+04
    8.9412782108e-04    1.0000022656e+05
    9.2182843946e-04    1.0000777344e+05
    9.4952445943e-04    1.0000275000e+05
    9.7721535712e-04    1.0000337500e+05
    1.0049008997e-03    9.9994523438e+04
    1.0325826006e-03    9.9998531250e+04
    1.0602590628e-03    1.0000096094e+05
    1.0879321489e-03    1.0000152344e+05
    1.1155996472e-03    1.0000171094e+05
    1.1432634201e-03    9.9996695312e+04
    1.1709230021e-03    9.9992781250e+04
    1.1985785095e-03    1.0000190625e+05
    1.2262313394e-03    1.0001177344e+05
    1.2538790470e-03    1.0000235156e+05
    1.2815232622e-03    1.0000371875e+05
    1.3091630535e-03    9.9995000000e+04
    1.3368004002e-03    1.0000516406e+05
    1.3644339051e-03    1.0000939844e+05
    1.3920635683e-03    1.0002735156e+05
    1.4196902048e-03    1.0005250000e+05
    1.4473132323e-03    1.0010190625e+05
    1.4749332331e-03    1.0018567969e+05
    1.5025498578e-03    1.0032410156e+05
    1.5301633393e-03    1.0052160156e+05
    1.5577742597e-03    1.0077537500e+05
    1.5853822697e-03    1.0109577344e+05
    1.6129877185e-03    1.0147000781e+05
    1.6405890929e-03    1.0186669531e+05
    1.6681876732e-03    1.0225021094e+05
    1.6957829939e-03    1.0259624219e+05
    1.7233766848e-03    1.0286875781e+05
    1.7509678146e-03    1.0305152344e+05
    1.7785291420e-03    1.0313709375e+05
    1.8060547300e-03    1.0314010156e+05
    1.8335470231e-03    1.0305508594e+05
    1.8610082334e-03    1.0291400781e+05
    1.8884401070e-03    1.0275302344e+05
    1.9158447394e-03    1.0258116406e+05
    1.9432241097e-03    1.0241753906e+05
    1.9705800805e-03    1.0229261719e+05
    1.9979148638e-03    1.0221941406e+05
    2.0252298564e-03    1.0219277344e+05
    2.0525271539e-03    1.0221127344e+05
    2.0798076876e-03    1.0227339844e+05
    2.1070730872e-03    1.0234725781e+05
    2.1343247499e-03    1.0242071094e+05
    2.1615643054e-03    1.0247821875e+05
    2.1887931507e-03    1.0252410156e+05
    2.2160108201e-03    1.0254215625e+05
    2.2432196420e-03    1.0254200781e+05
    2.2704207804e-03    1.0251710156e+05
    2.2976147011e-03    1.0248060156e+05
    2.3248014040e-03    1.0244000781e+05
    2.3519827519e-03    1.0241060156e+05
    2.3791582789e-03    1.0239482031e+05
    2.4063293822e-03    1.0239033594e+05
    2.4334960617e-03    1.0238885156e+05
    2.4606597144e-03    1.0239633594e+05
    2.4878205732e-03    1.0240958594e+05
    2.5149781723e-03    1.0242828125e+05
    2.5421329774e-03    1.0244219531e+05
    2.5692859199e-03    1.0244646094e+05
    2.5964374654e-03    1.0244112500e+05
    2.6235871483e-03    1.0244471094e+05
    2.6507352013e-03    1.0243838281e+05
    2.6778825559e-03    1.0243464844e+05
    2.7050296776e-03    1.0242475781e+05
    2.7321761008e-03    1.0241633594e+05
    2.7593218256e-03    1.0241071094e+05
    2.7864677832e-03    1.0242075000e+05
    2.8136142064e-03    1.0242218750e+05
    2.8407603968e-03    1.0242834375e+05
    2.8679079842e-03    1.0244088281e+05
    2.8950548731e-03    1.0246312500e+05
    2.9222022276e-03    1.0249133594e+05
    2.9493502807e-03    1.0252930469e+05
    2.9764990322e-03    1.0257286719e+05
    3.0036487151e-03    1.0263709375e+05
    3.0307997949e-03    1.0271802344e+05
    3.0579508748e-03    1.0281244531e+05
    3.0851035845e-03    1.0291693750e+05
    3.1122572254e-03    1.0302457031e+05
    3.1394117977e-03    1.0312387500e+05
    3.1665677670e-03    1.0320325000e+05
    3.1937246677e-03    1.0325990625e+05
    3.2208829653e-03    1.0330197656e+05
    3.2480424270e-03    1.0331408594e+05
    3.2752046827e-03    1.0329447656e+05
    3.2952371985e-03    1.0325577344e+05
    3.3145032357e-03    1.0321596094e+05
    3.3336398192e-03    1.0317472656e+05
    3.3528339118e-03    1.0313700000e+05
    3.3720366191e-03    1.0310025000e+05
    3.3912549261e-03    1.0306277344e+05
    3.4104890656e-03    1.0302552344e+05
    3.4297339153e-03    1.0298206250e+05
    3.4486323129e-03    1.0293642969e+05
    3.4671388566e-03    1.0288286719e+05
    3.4854323603e-03    1.0282400000e+05
    3.5036695190e-03    1.0276840625e+05
    3.5219141282e-03    1.0270350781e+05
    3.5401545465e-03    1.0263613281e+05
    3.5583588760e-03    1.0256564844e+05
    3.5765271168e-03    1.0249414844e+05
    3.5946895368e-03    1.0242835156e+05
    3.6139658187e-03    1.0236718750e+05
    3.6330535077e-03    1.0231928906e+05
    3.6521453876e-03    1.0228178906e+05
    3.6699753255e-03    1.0225209375e+05
    3.6875614896e-03    1.0223322656e+05
    3.7050142419e-03    1.0221694531e+05
    3.7224807311e-03    1.0220282031e+05
    3.7400643341e-03    1.0218596094e+05
    3.7577797193e-03    1.0217066406e+05
    3.7755726371e-03    1.0215099219e+05
    3.7933769636e-03    1.0213410156e+05
    3.8111612666e-03    1.0212852344e+05
    3.8289318327e-03    1.0212684375e+05
    3.8467168342e-03    1.0212959375e+05
    3.8645383902e-03    1.0212425000e+05
    3.8824023213e-03    1.0211622656e+05
    3.9002960548e-03    1.0210843750e+05
    3.9182156324e-03    1.0209246094e+05
    3.9361710660e-03    1.0206585156e+05
    3.9541716687e-03    1.0204828125e+05
    3.9733103476e-03    1.0203092969e+05
    3.9924201556e-03    1.0201728906e+05
    4.0104058571e-03    1.0200546094e+05
    4.0284004062e-03    1.0199203125e+05
    4.0464363992e-03    1.0198546094e+05
    4.0656095371e-03    1.0197043750e+05
    4.0847789496e-03    1.0196563281e+05
    4.1039343923e-03    1.0196042969e+05
    4.1219722480e-03    1.0195489844e+05
    4.1400394402e-03    1.0194624219e+05
    4.1591953486e-03    1.0194493750e+05
    4.1784178466e-03    1.0193343750e+05
    4.1976389475e-03    1.0192239844e+05
    4.2168586515e-03    1.0191162500e+05
    4.2360713705e-03    1.0190027344e+05
    4.2552771047e-03    1.0189847656e+05
    4.2744791135e-03    1.0189366406e+05
    4.2936825193e-03    1.0188550781e+05
    4.3128933758e-03    1.0187431250e+05
    4.3321144767e-03    1.0185719531e+05
    4.3513495475e-03    1.0183953125e+05
    4.3705995195e-03    1.0181397656e+05
    4.3898657896e-03    1.0179290625e+05
    4.4091497548e-03    1.0176928125e+05
    4.4284537435e-03    1.0174535156e+05
    4.4477786869e-03    1.0171677344e+05
    4.4671236537e-03    1.0168468750e+05
    4.4864914380e-03    1.0162853906e+05
    4.5058806427e-03    1.0156660156e+05
    4.5252908021e-03    1.0148722656e+05
    4.5447219163e-03    1.0140660156e+05
    4.5641721226e-03    1.0131068750e+05
    4.5836409554e-03    1.0121253906e+05
    4.6031279489e-03    1.0110536719e+05
    4.6226321720e-03    1.0098746094e+05
    4.6421540901e-03    1.0086710156e+05
    4.6616927721e-03    1.0074035156e+05
    4.6812482178e-03    1.0061667969e+05
    4.7008208930e-03    1.0050161719e+05
    4.7204112634e-03    1.0039622656e+05
    4.7400193289e-03    1.0030825781e+05
    4.7596455552e-03    1.0023427344e+05
    4.7792894766e-03    1.0018066406e+05
    4.7989510931e-03    1.0014833594e+05
    4.8186304048e-03    1.0014241406e+05
    4.8383255489e-03    1.0015421094e+05
    4.8580355942e-03    1.0018408594e+05
    4.8777610064e-03    1.0023325781e+05
    4.8975008540e-03    1.0029161719e+05
    4.9172551371e-03    1.0035307031e+05
    4.9370229244e-03    1.0041119531e+05
    4.9568060786e-03    1.0046758594e+05
    4.9766036682e-03    1.0052833594e+05
    4.9964170903e-03    1.0057353125e+05
    5.0162458792e-03    1.0061418750e+05
    5.0360900350e-03    1.0064893750e+05
    5.0559476949e-03    1.0066461719e+05
    5.0758207217e-03    1.0067422656e+05
    5.0957072526e-03    1.0067464844e+05
    5.1156077534e-03    1.0067307031e+05
    5.1355226897e-03    1.0066459375e+05
    5.1554525271e-03    1.0065460156e+05
    5.1753963344e-03    1.0063822656e+05
    5.1953555085e-03    1.0061753906e+05
    5.2153295837e-03    1.0060041406e+05
    5.2353194915e-03    1.0059124219e+05
    5.2553247660e-03    1.0057678906e+05
    5.2753463387e-03    1.0057156250e+05
    5.2953832783e-03    1.0057263281e+05
    5.3154369816e-03    1.0057289844e+05
    5.3355065174e-03    1.0057902344e+05
    5.3555918857e-03    1.0058585156e+05
    5.3756926209e-03    1.0059814844e+05
    5.3958082572e-03    1.0061271094e+05
    5.4159392603e-03    1.0062453906e+05
    5.4360851645e-03    1.0064100000e+05
    5.4562464356e-03    1.0065271094e+05
    5.4764230736e-03    1.0066263281e+05
    5.4966160096e-03    1.0066811719e+05
    5.5168238468e-03    1.0067007031e+05
    5.5370470509e-03    1.0067317969e+05
    5.5572865531e-03    1.0066639844e+05
    5.5775423534e-03    1.0066708594e+05
    5.5978130549e-03    1.0067115625e+05
    5.6181000546e-03    1.0067077344e+05
    5.6384028867e-03    1.0067272656e+05
    5.6587206200e-03    1.0067487500e+05
    5.6790532544e-03    1.0067830469e+05
    5.6994007900e-03    1.0068068750e+05
    5.7197632268e-03    1.0068089844e+05
    5.7401410304e-03    1.0068346875e+05
    5.7605337352e-03    1.0068847656e+05
    5.7809422724e-03    1.0069025000e+05
    5.8013652451e-03    1.0069333594e+05
    5.8218040504e-03    1.0069740625e+05
    5.8422577567e-03    1.0070158594e+05
    5.8627268299e-03    1.0071447656e+05
    5.8832112700e-03    1.0072016406e+05
    5.9037101455e-03    1.0071767969e+05
    5.9242248535e-03    1.0072115625e+05
    5.9447535314e-03    1.0073121875e+05
    5.9641525149e-03    1.0073538281e+05
    5.9830932878e-03    1.0073971094e+05
    6.0020405799e-03    1.0074546094e+05
    6.0210367665e-03    1.0075946094e+05
    6.0400799848e-03    1.0076460156e+05
    6.0591096990e-03    1.0076971094e+05
    6.0781282373e-03    1.0077477344e+05
    6.0972142965e-03    1.0077908594e+05
    6.1162756756e-03    1.0078281250e+05
    6.1353649944e-03    1.0078883594e+05
    6.1544459313e-03    1.0079365625e+05
    6.1734300107e-03    1.0080508594e+05
    6.1924448237e-03    1.0081289844e+05
    6.2115197070e-03    1.0082560156e+05
    6.2306127511e-03    1.0083533594e+05
    6.2497169711e-03    1.0084646094e+05
    6.2688281760e-03    1.0085666406e+05
    6.2879407778e-03    1.0086387500e+05
    6.3070552424e-03    1.0088138281e+05
    6.3261794858e-03    1.0089085156e+05
    6.3453060575e-03    1.0092044531e+05
    6.3644465990e-03    1.0095113281e+05
    6.3835908659e-03    1.0099907031e+05
    6.4027444459e-03    1.0108664844e+05
    6.4219115302e-03    1.0124364844e+05
    6.4410855994e-03    1.0156694531e+05
    6.4602680504e-03    1.0220702344e+05
    6.4794607460e-03    1.0346812500e+05
    6.4986641519e-03    1.0585671875e+05
    6.5178787336e-03    1.1001877344e+05
    6.5371058881e-03    1.1653953125e+05
    6.5563363023e-03    1.2558861719e+05
    6.5755699761e-03    1.3649500000e+05
    6.5948092379e-03    1.4777196875e+05
    6.6140629351e-03    1.5758500000e+05
    6.6333152354e-03    1.6459256250e+05
    6.6525745206e-03    1.6840839062e+05
    6.6718445159e-03    1.6952734375e+05
    6.6911154427e-03    1.6884693750e+05
    6.7104012705e-03    1.6729920312e+05
    6.7296870984e-03    1.6560475000e+05
    6.7489854991e-03    1.6413348438e+05
    6.7682852969e-03    1.6288937500e+05
    6.7875892855e-03    1.6174723438e+05
    6.8069072440e-03    1.6051837500e+05
    6.8262196146e-03    1.5910539062e+05
    6.8455408327e-03    1.5749875000e+05
    6.8648783490e-03    1.5571820312e+05
    6.8842126057e-03    1.5385371875e+05
    6.9035501219e-03    1.5200559375e+05
    6.9228983484e-03    1.5022618750e+05
    6.9422605447e-03    1.4855275000e+05
    6.9616222754e-03    1.4697881250e+05
    6.9809844717e-03    1.4547570312e+05
    7.0003494620e-03    1.4401890625e+05
    7.0197195746e-03    1.4259667188e+05
    7.0390999317e-03    1.4119025000e+05
    7.0584909990e-03    1.3981439062e+05
    7.0778946392e-03    1.3849057812e+05
    7.0973108523e-03    1.3723440625e+05
    7.1167377755e-03    1.3604529688e+05
    7.1361698210e-03    1.3494906250e+05
    7.1556069888e-03    1.3393043750e+05
    7.1750483476e-03    1.3298485938e+05
    7.1944966912e-03    1.3210456250e+05
    7.2139529511e-03    1.3127665625e+05
    7.2334166616e-03    1.3050056250e+05
    7.2528840974e-03    1.2975969531e+05
    7.2723543271e-03    1.2905877344e+05
    7.2918278165e-03    1.2839336719e+05
    7.3113050312e-03    1.2775793750e+05
    7.3307845742e-03    1.2715160156e+05
    7.3502692394e-03    1.2656521094e+05
    7.3697618209e-03    1.2600382031e+05
    7.3892641813e-03    1.2545418750e+05
    7.4087800458e-03    1.2491408594e+05
    7.4282912537e-03    1.2438130469e+05
    7.4477996677e-03    1.2386649219e+05
    7.4673094787e-03    1.2336711719e+05
    7.4868267402e-03    1.2289372656e+05
    7.5063589029e-03    1.2243700781e+05
    7.5258887373e-03    1.2201721875e+05
    7.5454111211e-03    1.2162928906e+05
    7.5649353676e-03    1.2127036719e+05
    7.5844703242e-03    1.2093947656e+05
    7.6040057465e-03    1.2064121094e+05
    7.6235276647e-03    1.2036575000e+05
    7.6430505142e-03    1.2011839844e+05
    7.6625877991e-03    1.1989391406e+05
    7.6821087860e-03    1.1967965625e+05
    7.7016241848e-03    1.1947562500e+05
    7.7211544849e-03    1.1928252344e+05
    7.7406810597e-03    1.1909928906e+05
    7.7602043748e-03    1.1892492969e+05
    7.7797495760e-03    1.1876028906e+05
    7.7992938459e-03    1.1859378125e+05
    7.8188432381e-03    1.1841947656e+05
    7.8384252265e-03    1.1825072656e+05
    7.8580006957e-03    1.1807147656e+05
    7.8775910661e-03    1.1789239844e+05
    7.8972103074e-03    1.1770428125e+05
    7.9168286175e-03    1.1751468750e+05
    7.9364804551e-03    1.1732585156e+05
    7.9561360180e-03    1.1713991406e+05
    7.9758102074e-03    1.1694953906e+05
    7.9955114052e-03    1.1676428906e+05
    8.0152126029e-03    1.1657814844e+05
    8.0349491909e-03    1.1639337500e+05
    8.0546662211e-03    1.1621296094e+05
    8.0743944272e-03    1.1603910156e+05
    8.0941170454e-03    1.1586643750e+05
    8.1138620153e-03    1.1569946875e+05
    8.1336386502e-03    1.1554534375e+05
    8.1534720957e-03    1.1540028125e+05
    8.1733558327e-03    1.1526153906e+05
    8.1932730973e-03    1.1513372656e+05
    8.2132071257e-03    1.1501586719e+05
    8.2330890000e-03    1.1489847656e+05
    8.2529615611e-03    1.1479427344e+05
    8.2727763802e-03    1.1469371094e+05
    8.2926023751e-03    1.1459196094e+05
    8.3124246448e-03    1.1449656250e+05
    8.3322748542e-03    1.1439814844e+05
    8.3521194756e-03    1.1429340625e+05
    8.3719678223e-03    1.1418378906e+05
    8.3917891607e-03    1.1406846094e+05
    8.4116021171e-03    1.1394135156e+05
    8.4314141423e-03    1.1381146875e+05
    8.4512168542e-03    1.1367127344e+05
    8.4710381925e-03    1.1353264844e+05
    8.4908353165e-03    1.1338753906e+05
    8.5106678307e-03    1.1323908594e+05
    8.5304882377e-03    1.1309913281e+05
    8.5503393784e-03    1.1296285156e+05
    8.5699046031e-03    1.1282821094e+05
    8.5892248899e-03    1.1270941406e+05
    8.6083402857e-03    1.1260196094e+05
    8.6272666231e-03    1.1251162500e+05
    8.6460309103e-03    1.1243321875e+05
    8.6646731943e-03    1.1236394531e+05
    8.6832325906e-03    1.1230792969e+05
    8.7017398328e-03    1.1225474219e+05
    8.7202098221e-03    1.1220585156e+05
    8.7386453524e-03    1.1215788281e+05
    8.7570473552e-03    1.1210624219e+05
    8.7753897533e-03    1.1206257031e+05
    8.7936492637e-03    1.1201524219e+05
    8.8118780404e-03    1.1196500000e+05
    8.8300397620e-03    1.1192030469e+05
    8.8481390849e-03    1.1186203906e+05
    8.8662039489e-03    1.1180327344e+05
    8.8842641562e-03    1.1174413281e+05
    8.9023411274e-03    1.1167546875e+05
    8.9204348624e-03    1.1160835156e+05
    8.9385388419e-03    1.1153581250e+05
    8.9566456154e-03    1.1146758594e+05
    8.9747514576e-03    1.1140330469e+05
    8.9928600937e-03    1.1134342969e+05
    9.0109808370e-03    1.1128385156e+05
    9.0291155502e-03    1.1122883594e+05
    9.0472688898e-03    1.1118237500e+05
    9.0654399246e-03    1.1113816406e+05
    9.0836230665e-03    1.1108974219e+05
    9.1018192470e-03    1.1104903906e+05
    9.1200266033e-03    1.1100903125e+05
    9.1382460669e-03    1.1095987500e+05
    9.1564757749e-03    1.1091902344e+05
    9.1747231781e-03    1.1087052344e+05
    9.1929892078e-03    1.1082277344e+05
    9.2112747952e-03    1.1077200781e+05
    9.2295790091e-03    1.1071941406e+05
    9.2479009181e-03    1.1066378906e+05
    9.2662386596e-03    1.1060850000e+05
    9.2845931649e-03    1.1055322656e+05
    9.3029672280e-03    1.1050237500e+05
    9.3213599175e-03    1.1045527344e+05
    9.3397712335e-03    1.1040535156e+05
    9.3582011759e-03    1.1036661719e+05
    9.3766497448e-03    1.1032916406e+05
    9.3951150775e-03    1.1029622656e+05
    9.4135999680e-03    1.1026508594e+05
    9.4321016222e-03    1.1024578906e+05
    9.4506228343e-03    1.1022590625e+05
    9.4691645354e-03    1.1021336719e+05
    9.4877239317e-03    1.1019413281e+05
    9.5063010231e-03    1.1017653906e+05
    9.5248948783e-03    1.1015000781e+05
    9.5435054973e-03    1.1012035156e+05
    9.5621328801e-03    1.1007819531e+05
    9.5807760954e-03    1.1002010156e+05
    9.5994332805e-03    1.0994875781e+05
    9.6181081608e-03    1.0986100000e+05
    9.6367979422e-03    1.0976110156e+05
    9.6555035561e-03    1.0964753906e+05
    9.6742231399e-03    1.0951578906e+05
    9.6929576248e-03    1.0937727344e+05
    9.7117051482e-03    1.0921819531e+05
    9.7304685041e-03    1.0905702344e+05
    9.7492448986e-03    1.0889599219e+05
    9.7680361941e-03    1.0872040625e+05
    9.7868405282e-03    1.0854543750e+05
    9.8056588322e-03    1.0837835156e+05
    9.8244920373e-03    1.0821622656e+05
    9.8433364183e-03    1.0806591406e+05
    9.8621929064e-03    1.0792247656e+05
    9.8810633644e-03    1.0779203906e+05
    9.8999459296e-03    1.0767422656e+05
    9.9188406020e-03    1.0756997656e+05
    9.9377483130e-03    1.0747181250e+05
    9.9566690624e-03    1.0738652344e+05
    9.9756028503e-03    1.0730697656e+05
    9.9945487455e-03    1.0724038281e+05
    1.0013507679e-02    1.0717849219e+05
    1.0032479651e-02    1.0711699219e+05
    1.0051463731e-02    1.0706561719e+05
    1.0070459917e-02    1.0702410156e+05
    1.0089469142e-02    1.0698253125e+05
    1.0108492337e-02    1.0694746094e+05
    1.0127528571e-02    1.0691166406e+05
    1.0146577843e-02    1.0688527344e+05
    1.0165639222e-02    1.0686903125e+05
    1.0184712708e-02    1.0685619531e+05
    1.0203798302e-02    1.0684731250e+05
    1.0222896002e-02    1.0683761719e+05
    1.0242006741e-02    1.0682991406e+05
    1.0261129588e-02    1.0682544531e+05
    1.0280264542e-02    1.0681814844e+05
    1.0299413465e-02    1.0680102344e+05
    1.0318575427e-02    1.0679412500e+05
    1.0337748565e-02    1.0677962500e+05
    1.0356934741e-02    1.0676358594e+05
    1.0376133956e-02    1.0674390625e+05
    1.0395346209e-02    1.0671605469e+05
    1.0414571501e-02    1.0667569531e+05
    1.0433809832e-02    1.0663705469e+05
    1.0453061201e-02    1.0659114844e+05
    1.0472324677e-02    1.0654102344e+05
    1.0491601191e-02    1.0648384375e+05
    1.0510892607e-02    1.0641681250e+05
    1.0530196130e-02    1.0635174219e+05
    1.0549513623e-02    1.0628557031e+05
    1.0568842292e-02    1.0621060156e+05
    1.0588183999e-02    1.0613547656e+05
    1.0607538745e-02    1.0605885156e+05
    1.0626907460e-02    1.0599255469e+05
    1.0646289214e-02    1.0592686719e+05
    1.0665684007e-02    1.0585921875e+05
    1.0685092770e-02    1.0578892969e+05
    1.0704516433e-02    1.0572769531e+05
    1.0723951273e-02    1.0566553906e+05
    1.0743400082e-02    1.0559821094e+05
    1.0762862861e-02    1.0553340625e+05
    1.0782338679e-02    1.0546096875e+05
    1.0801829398e-02    1.0538107031e+05
    1.0821334086e-02    1.0529987500e+05
    1.0840852745e-02    1.0521421094e+05
    1.0860386305e-02    1.0512060156e+05
    1.0879932903e-02    1.0503334375e+05
    1.0899493471e-02    1.0495296875e+05
    1.0919069871e-02    1.0487925781e+05
    1.0938662104e-02    1.0480928906e+05
    1.0958270170e-02    1.0475489844e+05
    1.0977892205e-02    1.0470189844e+05
    1.0997531936e-02    1.0465938281e+05
    1.1017187499e-02    1.0461853906e+05
    1.1036860757e-02    1.0457108594e+05
    1.1056551710e-02    1.0453180469e+05
    1.1076259427e-02    1.0449382031e+05
    1.1095987633e-02    1.0444850000e+05
    1.1115733534e-02    1.0440203125e+05
    1.1135498993e-02    1.0434510156e+05
    1.1155283079e-02    1.0428458594e+05
    1.1175086722e-02    1.0421739844e+05
    1.1194912717e-02    1.0415307031e+05
    1.1214758269e-02    1.0408778125e+05
    1.1234625243e-02    1.0402781250e+05
    1.1254511774e-02    1.0396775781e+05
    1.1274418794e-02    1.0391544531e+05
    1.1294347234e-02    1.0385935156e+05
    1.1314296164e-02    1.0381400781e+05
    1.1334266514e-02    1.0377080469e+05
    1.1354257353e-02    1.0372483594e+05
    1.1374268681e-02    1.0368477344e+05
    1.1394302361e-02    1.0364572656e+05
    1.1414355598e-02    1.0360347656e+05
    1.1434430256e-02    1.0356078125e+05
    1.1454525404e-02    1.0351953906e+05
    1.1474640109e-02    1.0346716406e+05
    1.1494777165e-02    1.0341489844e+05
    1.1514934711e-02    1.0336107031e+05
    1.1535113677e-02    1.0330640625e+05
    1.1555313133e-02    1.0325649219e+05
    1.1575534008e-02    1.0321561719e+05
    1.1595774442e-02    1.0317103125e+05
    1.1616035365e-02    1.0313350000e+05
    1.1636316776e-02    1.0309671094e+05
    1.1656619608e-02    1.0306408594e+05
    1.1676942930e-02    1.0303824219e+05
    1.1697287671e-02    1.0300225781e+05
    1.1717652902e-02    1.0296977344e+05
    1.1738038622e-02    1.0294027344e+05
    1.1758443899e-02    1.0290753906e+05
    1.1778870597e-02    1.0287002344e+05
    1.1799318716e-02    1.0282508594e+05
    1.1819788255e-02    1.0279177344e+05
    1.1840280145e-02    1.0275650000e+05
    1.1860790662e-02    1.0272427344e+05
    1.1881321669e-02    1.0269718750e+05
    1.1901874095e-02    1.0266066406e+05
    1.1922447011e-02    1.0262377344e+05
    1.1943042278e-02    1.0259225781e+05
    1.1963658035e-02    1.0255717969e+05
    1.1984295212e-02    1.0252860156e+05
    1.2004952878e-02    1.0250167969e+05
    1.2025631964e-02    1.0247888281e+05
    1.2046331540e-02    1.0246224219e+05
    1.2067052536e-02    1.0245471094e+05
    1.2087795883e-02    1.0247372656e+05
    1.2108558789e-02    1.0252003906e+05
    1.2129344046e-02    1.0261021094e+05
    1.2150149792e-02    1.0275725781e+05
    1.2170976959e-02    1.0296678906e+05
    1.2191825546e-02    1.0326846875e+05
    1.2212695554e-02    1.0367178906e+05
    1.2233586982e-02    1.0421514844e+05
    1.2254500762e-02    1.0490480469e+05
    1.2275436893e-02    1.0575318750e+05
    1.2296394445e-02    1.0674839844e+05
    1.2317374349e-02    1.0785910156e+05
    1.2338375673e-02    1.0902927344e+05
    1.2359398417e-02    1.1017758594e+05
    1.2380442582e-02    1.1122215625e+05
    1.2401508167e-02    1.1207922656e+05
    1.2422595173e-02    1.1269499219e+05
    1.2443703599e-02    1.1302831250e+05
    1.2464834377e-02    1.1307832031e+05
    1.2485986575e-02    1.1287260156e+05
    1.2507158332e-02    1.1245485156e+05
    1.2528351508e-02    1.1186062500e+05
    1.2549565174e-02    1.1116657031e+05
    1.2570801191e-02    1.1041213281e+05
    1.2592058629e-02    1.0967283594e+05
    1.2613337487e-02    1.0898643750e+05
    1.2634636834e-02    1.0838175781e+05
    1.2655957602e-02    1.0789161719e+05
    1.2677297927e-02    1.0749514844e+05
    1.2698660605e-02    1.0716681250e+05
    1.2720043771e-02    1.0686767969e+05
    1.2741449289e-02    1.0655568750e+05
    1.2762876227e-02    1.0620541406e+05
    1.2784325518e-02    1.0579441406e+05
    1.2805794366e-02    1.0532119531e+05
    1.2827285565e-02    1.0479827344e+05
    1.2848797254e-02    1.0423721875e+05
    1.2870330364e-02    1.0365733594e+05
    1.2891885825e-02    1.0309480469e+05
    1.2913462706e-02    1.0256197656e+05
    1.2935061008e-02    1.0208031250e+05
    1.2956679799e-02    1.0166110156e+05
    1.2978320010e-02    1.0130650000e+05
    1.2999981642e-02    1.0101110156e+05
    1.3021663763e-02    1.0075896094e+05
    1.3043368235e-02    1.0053985156e+05
    1.3065092266e-02    1.0034893750e+05
    1.3086837716e-02    1.0017741406e+05
    1.3108605519e-02    1.0001918750e+05
    1.3130392879e-02    9.9886679688e+04
    1.3152201660e-02    9.9768164062e+04
    1.3174032792e-02    9.9665023438e+04
    1.3195885345e-02    9.9578570312e+04
    1.3217759319e-02    9.9507648438e+04
    1.3239653781e-02    9.9461968750e+04
    1.3261569664e-02    9.9438554688e+04
    1.3283506967e-02    9.9437593750e+04
    1.3305463828e-02    9.9450460938e+04
    1.3327440247e-02    9.9475320312e+04
    1.3349435292e-02    9.9499351562e+04
    1.3371448033e-02    9.9519898438e+04
    1.3393475674e-02    9.9533726562e+04
    1.3415516354e-02    9.9538593750e+04
    1.3437564485e-02    9.9535539062e+04
    1.3459613547e-02    9.9532757812e+04
    1.3481658883e-02    9.9533000000e+04
    1.3503690250e-02    9.9552773438e+04
    1.3525702059e-02    9.9592000000e+04
    1.3547683135e-02    9.9659773438e+04
    1.3569628820e-02    9.9757031250e+04
    1.3591531664e-02    9.9884164062e+04
    1.3613392599e-02    1.0001834375e+05
    1.3635210693e-02    1.0016049219e+05
    1.3656994328e-02    1.0029432031e+05
    1.3678749092e-02    1.0041219531e+05
    1.3700488023e-02    1.0050693750e+05
    1.3722228818e-02    1.0057483594e+05
    1.3743981719e-02    1.0061696875e+05
    1.3765762560e-02    1.0064458594e+05
    1.3787578791e-02    1.0065474219e+05
    1.3809437864e-02    1.0066102344e+05
    1.3831341639e-02    1.0067863281e+05
    1.3853288256e-02    1.0069846094e+05
    1.3875273056e-02    1.0073359375e+05
    1.3897285797e-02    1.0077783594e+05
    1.3919321820e-02    1.0082253906e+05
    1.3941374607e-02    1.0087064844e+05
    1.3963440433e-02    1.0092287500e+05
    1.3985517435e-02    1.0096496094e+05
    1.4007603750e-02    1.0100587500e+05
    1.4029704034e-02    1.0103406250e+05
    1.4051820152e-02    1.0106082031e+05
    1.4073957689e-02    1.0107835156e+05
    1.4096121304e-02    1.0108793750e+05
    1.4118315652e-02    1.0109527344e+05
    1.4140545391e-02    1.0110016406e+05
    1.4162814245e-02    1.0110568750e+05
    1.4185124077e-02    1.0111107031e+05
    1.4207473956e-02    1.0111903906e+05
    1.4229862019e-02    1.0112834375e+05
    1.4252286404e-02    1.0114139844e+05
    1.4274741523e-02    1.0114446094e+05
    1.4297228307e-02    1.0115200781e+05
    1.4319745824e-02    1.0115875000e+05
    1.4342290349e-02    1.0115471094e+05
    1.4364863746e-02    1.0114910156e+05
    1.4387467876e-02    1.0114303125e+05
    1.4410103671e-02    1.0113349219e+05
    1.4432771131e-02    1.0112255469e+05
    1.4455472119e-02    1.0111203906e+05
    1.4478209428e-02    1.0109941406e+05
    1.4500979334e-02    1.0108407031e+05
    1.4523783699e-02    1.0106882031e+05
    1.4546621591e-02    1.0105602344e+05
    1.4569494873e-02    1.0103674219e+05
    1.4592399821e-02    1.0101871094e+05
    1.4615339227e-02    1.0099619531e+05
    1.4638305642e-02    1.0096796094e+05
    1.4661304653e-02    1.0094290625e+05
    1.4684336260e-02    1.0091325000e+05
    1.4707398601e-02    1.0088443750e+05
    1.4730494469e-02    1.0086147656e+05
    1.4753622934e-02    1.0083667969e+05
    1.4776783995e-02    1.0082100000e+05
    1.4799979515e-02    1.0079968750e+05
    1.4823205769e-02    1.0077959375e+05
    1.4846466482e-02    1.0076766406e+05
    1.4869757928e-02    1.0076158594e+05
    1.4893081971e-02    1.0075032031e+05
    1.4916437678e-02    1.0073871094e+05
    1.4939822257e-02    1.0072558594e+05
    1.4963239431e-02    1.0070196094e+05
    1.4986685477e-02    1.0068015625e+05
    1.5010161325e-02    1.0064847656e+05
    1.5033668838e-02    1.0060822656e+05
    1.5057205223e-02    1.0056659375e+05
    1.5080772340e-02    1.0051585156e+05
    1.5104367398e-02    1.0045291406e+05
    1.5127992257e-02    1.0038896875e+05
    1.5151646920e-02    1.0031574219e+05
    1.5175330453e-02    1.0024314844e+05
    1.5199041925e-02    1.0015393750e+05
    1.5222782269e-02    1.0006127344e+05
    1.5246548690e-02    9.9963164062e+04
    1.5270343982e-02    9.9858085938e+04
    1.5294168144e-02    9.9754867188e+04
    1.5318016522e-02    9.9652742188e+04
    1.5341891907e-02    9.9557914062e+04
    1.5365792438e-02    9.9469218750e+04
    1.5389721841e-02    9.9376914062e+04
    1.5413676389e-02    9.9302617188e+04
    1.5437657945e-02    9.9233601562e+04
    1.5461664647e-02    9.9178289062e+04
    1.5485695563e-02    9.9133968750e+04
    1.5509752557e-02    9.9104414062e+04
    1.5533835627e-02    9.9088382812e+04
    1.5557944775e-02    9.9087570312e+04
    1.5582079068e-02    9.9102398438e+04
    1.5606240369e-02    9.9128789062e+04
    1.5630424023e-02    9.9170398438e+04
    1.5654634684e-02    9.9222875000e+04
    1.5678871423e-02    9.9278187500e+04
    1.5703132376e-02    9.9345335938e+04
    1.5727419406e-02    9.9418351562e+04
    1.5751728788e-02    9.9492976562e+04
    1.5776060522e-02    9.9572851562e+04
    1.5800418332e-02    9.9658210938e+04
    1.5824800357e-02    9.9743164062e+04
    1.5849204734e-02    9.9835000000e+04
    1.5873633325e-02    9.9925507812e+04
    1.5898084268e-02    1.0001766406e+05
    1.5922557563e-02    1.0010209375e+05
    1.5947058797e-02    1.0017218750e+05
    1.5971582383e-02    1.0024293750e+05
    1.5996130183e-02    1.0030610156e+05
    1.6020702198e-02    1.0035581250e+05
    1.6045298427e-02    1.0039531250e+05
    1.6069920734e-02    1.0041958594e+05
    1.6094569117e-02    1.0043803906e+05
    1.6119243577e-02    1.0044683594e+05
    1.6143942252e-02    1.0044644531e+05
    1.6168667004e-02    1.0044397656e+05
    1.6193419695e-02    1.0043702344e+05
    1.6218200326e-02    1.0043774219e+05
    1.6243007034e-02    1.0044353125e+05
    1.6267839819e-02    1.0045574219e+05
    1.6292702407e-02    1.0047114844e+05
    1.6317596659e-02    1.0049965625e+05
    1.6342513263e-02    1.0053316406e+05
    1.6367461532e-02    1.0057662500e+05
    1.6392435879e-02    1.0062456250e+05
    1.6417443752e-02    1.0067881250e+05
    1.6442479566e-02    1.0074516406e+05
    1.6467543319e-02    1.0081164844e+05
    1.6492636874e-02    1.0087893750e+05
    1.6517756507e-02    1.0094996094e+05
    1.6542907804e-02    1.0102603906e+05
    1.6568088904e-02    1.0109878906e+05
    1.6593271866e-02    1.0117266406e+05
    1.6618426889e-02    1.0124636719e+05
    1.6643559560e-02    1.0131942969e+05
    1.6668669879e-02    1.0138183594e+05
    1.6693757847e-02    1.0144235156e+05
    1.6718825325e-02    1.0149390625e+05
    1.6743874177e-02    1.0153710156e+05
    1.6768900678e-02    1.0158416406e+05
    1.6793908551e-02    1.0161290625e+05
    1.6818899661e-02    1.0163777344e+05
    1.6843874007e-02    1.0165372656e+05
    1.6868829727e-02    1.0166487500e+05
    1.6893770546e-02    1.0167638281e+05
    1.6918692738e-02    1.0169162500e+05
    1.6943598166e-02    1.0169907031e+05
    1.6968490556e-02    1.0171306250e+05
    1.6993366182e-02    1.0173027344e+05
    1.7018226907e-02    1.0175177344e+05
    1.7043072730e-02    1.0178481250e+05
    1.7067901790e-02    1.0182492969e+05
    1.7092714086e-02    1.0185860156e+05
    1.7117511481e-02    1.0190365625e+05
    1.7142292112e-02    1.0194946094e+05
    1.7167057842e-02    1.0199558594e+05
    1.7191808671e-02    1.0202461719e+05
    1.7216544598e-02    1.0206297656e+05
    1.7241263762e-02    1.0209039844e+05
    1.7265968025e-02    1.0211516406e+05
    1.7290659249e-02    1.0212682031e+05
    1.7315333709e-02    1.0214547656e+05
    1.7339993268e-02    1.0214316406e+05
    1.7364639789e-02    1.0214546094e+05
    1.7389267683e-02    1.0214490625e+05
    1.7413880676e-02    1.0213677344e+05
    1.7438478768e-02    1.0212916406e+05
    1.7463061959e-02    1.0211375000e+05
    1.7487626523e-02    1.0210046094e+05
    1.7512176186e-02    1.0209178906e+05
    1.7536709085e-02    1.0208562500e+05
    1.7561223358e-02    1.0208382031e+05
    1.7585720867e-02    1.0207835156e+05
    1.7610201612e-02    1.0207360156e+05
    1.7634663731e-02    1.0207712500e+05
    1.7659107223e-02    1.0208353906e+05
    1.7683532089e-02    1.0209450781e+05
    1.7707940191e-02    1.0210902344e+05
    1.7732329667e-02    1.0212414844e+05
    1.7756698653e-02    1.0214802344e+05
    1.7781050876e-02    1.0216931250e+05
    1.7805384472e-02    1.0218756250e+05
    1.7829699442e-02    1.0220430469e+05
    1.7853999510e-02    1.0222614844e+05
    1.7878280953e-02    1.0224392969e+05
    1.7902545631e-02    1.0226272656e+05
    1.7926793545e-02    1.0228071094e+05
    1.7951028422e-02    1.0230190625e+05
    1.7975246534e-02    1.0232675781e+05
    1.7999447882e-02    1.0235675781e+05
    1.8023636192e-02    1.0239353125e+05
    1.8047811463e-02    1.0243581250e+05
    1.8071975559e-02    1.0249733594e+05
    1.8096126616e-02    1.0256466406e+05
    1.8120266497e-02    1.0264688281e+05
    1.8144397065e-02    1.0274284375e+05
    1.8168520182e-02    1.0285633594e+05
    1.8192630261e-02    1.0297132031e+05
    1.8216732889e-02    1.0308966406e+05
    1.8240824342e-02    1.0320258594e+05
    1.8264908344e-02    1.0330483594e+05
    1.8288983032e-02    1.0338869531e+05
    1.8313048407e-02    1.0344364844e+05
    1.8337102607e-02    1.0347188281e+05
    1.8361147493e-02    1.0346939844e+05
    1.8385183066e-02    1.0342540625e+05
    1.8409207463e-02    1.0334721094e+05
    1.8433224410e-02    1.0322667969e+05
    1.8457230181e-02    1.0307053906e+05
    1.8481226638e-02    1.0286593750e+05
    1.8505210057e-02    1.0262696094e+05
    1.8529184163e-02    1.0237152344e+05
    1.8553148955e-02    1.0210246875e+05
    1.8577100709e-02    1.0183291406e+05
    1.8601041287e-02    1.0157614844e+05
    1.8624972552e-02    1.0133758594e+05
    1.8648892641e-02    1.0111846094e+05
    1.8672801554e-02    1.0093247656e+05
    1.8696699291e-02    1.0077725000e+05
    1.8720587716e-02    1.0065933594e+05
    1.8744463101e-02    1.0058386719e+05
    1.8768329173e-02    1.0053221094e+05
    1.8792184070e-02    1.0049715625e+05
    1.8816027790e-02    1.0048477344e+05
    1.8839860335e-02    1.0048878906e+05
    1.8863683566e-02    1.0050121094e+05
    1.8887493759e-02    1.0053078906e+05
    1.8911294639e-02    1.0057314844e+05
    1.8935086206e-02    1.0062952344e+05
    1.8958866596e-02    1.0069310156e+05
    1.8982635811e-02    1.0076312500e+05
    1.9006397575e-02    1.0083853906e+05
    1.9030146301e-02    1.0091317969e+05
    1.9053885713e-02    1.0098325781e+05
    1.9077615812e-02    1.0105985156e+05
    1.9101334736e-02    1.0113059375e+05
    1.9125042483e-02    1.0119642969e+05
    1.9148740917e-02    1.0126039844e+05
    1.9172428176e-02    1.0132228125e+05
    1.9196104258e-02    1.0137314844e+05
    1.9219771028e-02    1.0142077344e+05
    1.9243424758e-02    1.0147021094e+05
    1.9267069176e-02    1.0151953906e+05
    1.9290700555e-02    1.0157089844e+05
    1.9314322621e-02    1.0162205469e+05
    1.9337931648e-02    1.0168196094e+05
    1.9361529499e-02    1.0174534375e+05
    1.9385114312e-02    1.0180946875e+05
    1.9408687949e-02    1.0186530469e+05
    1.9432250410e-02    1.0193114844e+05
    1.9455801696e-02    1.0198903906e+05
    1.9479339942e-02    1.0204314844e+05
    1.9502865151e-02    1.0209739844e+05
    1.9526379183e-02    1.0214635156e+05
    1.9549878314e-02    1.0218585156e+05
    1.9573366269e-02    1.0222472656e+05
    1.9596841186e-02    1.0226221094e+05
    1.9620303065e-02    1.0229833594e+05
    1.9643751904e-02    1.0232714844e+05
    1.9667187706e-02    1.0236008594e+05
    1.9690606743e-02    1.0239107031e+05
    1.9714014605e-02    1.0241060156e+05
    1.9737409428e-02    1.0242678906e+05
    1.9760791212e-02    1.0244146094e+05
    1.9784159958e-02    1.0245289844e+05
    1.9807513803e-02    1.0246281250e+05
    1.9830854610e-02    1.0246785156e+05
    1.9854182377e-02    1.0247103125e+05
    1.9877497107e-02    1.0247156250e+05
    1.9900798798e-02    1.0246782031e+05
    1.9924087450e-02    1.0246466406e+05
    1.9947361201e-02    1.0245199219e+05
    1.9970623776e-02    1.0244246875e+05
    1.9993871450e-02    1.0243541406e+05
    2.0017107949e-02    1.0242225781e+05
    2.0040329546e-02    1.0241662500e+05
    2.0063538104e-02    1.0240058594e+05
    2.0086731762e-02    1.0239133594e+05
    2.0109914243e-02    1.0236593750e+05
    2.0133081824e-02    1.0234703906e+05
    2.0156236365e-02    1.0232256250e+05
    2.0179376006e-02    1.0230489844e+05
    2.0202504471e-02    1.0229709375e+05
    2.0225618035e-02    1.0228007031e+05
    2.0248720422e-02    1.0226410156e+05
    2.0271807909e-02    1.0224302344e+05
    2.0294882357e-02    1.0222271094e+05
    2.0317947492e-02    1.0221091406e+05
    2.0340997726e-02    1.0219016406e+05
    2.0364036784e-02    1.0218008594e+05
    2.0387060940e-02    1.0217027344e+05
    2.0410073921e-02    1.0215960156e+05
    2.0433073863e-02    1.0213922656e+05
    2.0456060767e-02    1.0212833594e+05
    2.0479036495e-02    1.0211508594e+05
    2.0501999184e-02    1.0210519531e+05
    2.0524948835e-02    1.0209699219e+05
    2.0547885448e-02    1.0208874219e+05
    2.0570809022e-02    1.0208419531e+05
    2.0593719557e-02    1.0206921875e+05
    2.0616617054e-02    1.0205289844e+05
    2.0639499649e-02    1.0204163281e+05
    2.0662369207e-02    1.0202480469e+05
    2.0685223863e-02    1.0200643750e+05
    2.0708063617e-02    1.0199378906e+05
    2.0730890334e-02    1.0198258594e+05
    2.0753700286e-02    1.0196708594e+05
    2.0776495337e-02    1.0195218750e+05
    2.0799275488e-02    1.0192902344e+05
    2.0822042599e-02    1.0190921875e+05
    2.0844791085e-02    1.0188882031e+05
    2.0867524669e-02    1.0187952344e+05
    2.0890241489e-02    1.0186462500e+05
    2.0912945271e-02    1.0185315625e+05
    2.0935632288e-02    1.0183768750e+05
    2.0958306268e-02    1.0182328906e+05
    2.0980965346e-02    1.0180163281e+05
    2.1003607661e-02    1.0179485156e+05
    2.1026238799e-02    1.0178483594e+05
    2.1048855036e-02    1.0177971094e+05
    2.1071458235e-02    1.0177378906e+05
    2.1094048396e-02    1.0176862500e+05
    2.1116625518e-02    1.0177012500e+05
    2.1139191464e-02    1.0176285156e+05
    2.1161744371e-02    1.0176640625e+05
    2.1184286103e-02    1.0176932031e+05
    2.1206818521e-02    1.0176912500e+05
    2.1229337901e-02    1.0176937500e+05
    2.1251846105e-02    1.0176503906e+05
    2.1274344996e-02    1.0177110156e+05
    2.1296832711e-02    1.0177558594e+05
    2.1319312975e-02    1.0177721875e+05
    2.1341778338e-02    1.0177537500e+05
    2.1364232525e-02    1.0178365625e+05
    2.1386675537e-02    1.0178202344e+05
    2.1409107372e-02    1.0178033594e+05
    2.1431528032e-02    1.0177757031e+05
    2.1453931928e-02    1.0177584375e+05
    2.1476324648e-02    1.0177421094e+05
    2.1498700604e-02    1.0177277344e+05
    2.1521063522e-02    1.0177071094e+05
    2.1543409675e-02    1.0176800781e+05
    2.1565740928e-02    1.0176575781e+05
    2.1588053554e-02    1.0176216406e+05
    2.1610351279e-02    1.0175002344e+05
    2.1632634103e-02    1.0174552344e+05
    2.1654898301e-02    1.0174205469e+05
    2.1677147597e-02    1.0173821094e+05
    2.1699378267e-02    1.0173358594e+05
    2.1721594036e-02    1.0172996094e+05
    2.1743793041e-02    1.0171615625e+05
    2.1765975282e-02    1.0170941406e+05
    2.1788140759e-02    1.0170550781e+05
    2.1810289472e-02    1.0170336719e+05
    2.1832419559e-02    1.0169982031e+05
    2.1854531020e-02    1.0169646094e+05
    2.1876627579e-02    1.0169372656e+05
    2.1898705512e-02    1.0169097656e+05
    2.1920768544e-02    1.0168694531e+05
    2.1942811087e-02    1.0168246094e+05
    2.1964838728e-02    1.0167905469e+05
    2.1986849606e-02    1.0167566406e+05
    2.2008845583e-02    1.0167247656e+05
    2.2030822933e-02    1.0166899219e+05
    2.2052785382e-02    1.0166771875e+05
    2.2074732929e-02    1.0167497656e+05
    2.2096665576e-02    1.0167300781e+05
    2.2118583322e-02    1.0167184375e+05
    2.2140489891e-02    1.0167485156e+05
    2.2162377834e-02    1.0166986719e+05
    2.2184254602e-02    1.0166905469e+05
    2.2206118330e-02    1.0167439844e+05
    2.2227969021e-02    1.0167371875e+05
    2.2249806672e-02    1.0167802344e+05
    2.2271629423e-02    1.0168285156e+05
    2.2293440998e-02    1.0168785156e+05
    2.2315241396e-02    1.0168821875e+05
    2.2337028757e-02    1.0168371094e+05
    2.2358803079e-02    1.0167897656e+05
    2.2380566224e-02    1.0167796094e+05
    2.2402318195e-02    1.0167684375e+05
    2.2424057126e-02    1.0167616406e+05
    2.2445784882e-02    1.0167522656e+05
    2.2467501462e-02    1.0166955469e+05
    2.2489206865e-02    1.0166939844e+05
    2.2510899231e-02    1.0166749219e+05
    2.2532582283e-02    1.0166563281e+05
    2.2554252297e-02    1.0165957031e+05
    2.2575911134e-02    1.0165805469e+05
    2.2597560659e-02    1.0164585156e+05
    2.2619199008e-02    1.0164313281e+05
    2.2640828043e-02    1.0163988281e+05
    2.2662445903e-02    1.0163696094e+05
    2.2684050724e-02    1.0163492969e+05
    2.2705646232e-02    1.0163410156e+05
    2.2727232426e-02    1.0163083594e+05
    2.2748809308e-02    1.0162828906e+05
    2.2770375013e-02    1.0162316406e+05
    2.2791929543e-02    1.0162214844e+05
    2.2813472897e-02    1.0162522656e+05
    2.2835006937e-02    1.0162840625e+05
    2.2856531665e-02    1.0163178906e+05
    2.2878047079e-02    1.0163127344e+05
    2.2899549454e-02    1.0163078125e+05
    2.2921044379e-02    1.0163283594e+05
    2.2942528129e-02    1.0163571094e+05
    2.2964000702e-02    1.0163956250e+05
    2.2985465825e-02    1.0164375781e+05
    2.3006917909e-02    1.0164528906e+05
    2.3028360680e-02    1.0164580469e+05
    2.3049792275e-02    1.0164992969e+05
    2.3071214557e-02    1.0165931250e+05
    2.3092625663e-02    1.0166089844e+05
    2.3114029318e-02    1.0166172656e+05
    2.3135419935e-02    1.0165431250e+05
    2.3156799376e-02    1.0165578906e+05
    2.3178169504e-02    1.0165666406e+05
    2.3199530318e-02    1.0165774219e+05
    2.3220879957e-02    1.0166762500e+05
    2.3242218420e-02    1.0165963281e+05
    2.3263547570e-02    1.0166068750e+05
    2.3284865543e-02    1.0165066406e+05
    2.3306174204e-02    1.0163984375e+05
    2.3327469826e-02    1.0163831250e+05
    2.3348756135e-02    1.0163541406e+05
    2.3370031267e-02    1.0163349219e+05
    2.3391297087e-02    1.0163146875e+05
    2.3412553594e-02    1.0162182031e+05
    2.3433798924e-02    1.0161327344e+05
    2.3455033079e-02    1.0160316406e+05
    2.3476256058e-02    1.0159782031e+05
    2.3497469723e-02    1.0159175781e+05
    2.3518672213e-02    1.0158578125e+05
    2.3539865389e-02    1.0158533594e+05
    2.3561049253e-02    1.0158010156e+05
    2.3582221940e-02    1.0156862500e+05
    2.3603385314e-02    1.0155644531e+05
    2.3624535650e-02    1.0154500781e+05
    2.3645676672e-02    1.0153666406e+05
    2.3666808382e-02    1.0153177344e+05
    2.3687927052e-02    1.0152430469e+05
    2.3709038273e-02    1.0152728125e+05
    2.3730138317e-02    1.0152318750e+05
    2.3751227185e-02    1.0151753906e+05
    2.3772306740e-02    1.0151347656e+05
    2.3793375120e-02    1.0152000781e+05
    2.3814432323e-02    1.0152890625e+05
    2.3835480213e-02    1.0154403125e+05
    2.3856516927e-02    1.0155878906e+05
    2.3877544329e-02    1.0157534375e+05
    2.3898560554e-02    1.0159841406e+05
    2.3919565603e-02    1.0162330469e+05
    2.3940561339e-02    1.0164675781e+05
    2.3961545900e-02    1.0168259375e+05
    2.3982519284e-02    1.0171372656e+05
    2.4003483355e-02    1.0175346875e+05
    2.4024436250e-02    1.0179116406e+05
    2.4045377970e-02    1.0182974219e+05
    2.4066310376e-02    1.0185997656e+05
    2.4087233469e-02    1.0189796875e+05
    2.4108145386e-02    1.0193428125e+05
    2.4129044265e-02    1.0197063281e+05
    2.4149935693e-02    1.0200774219e+05
    2.4170814082e-02    1.0203492969e+05
    2.4191683158e-02    1.0206196094e+05
    2.4212542921e-02    1.0208042969e+05
    2.4233391508e-02    1.0210150000e+05
    2.4254228920e-02    1.0211608594e+05
    2.4275057018e-02    1.0212460156e+05
    2.4295873940e-02    1.0213156250e+05
    2.4316681549e-02    1.0213522656e+05
    2.4337477982e-02    1.0212749219e+05
    2.4358265102e-02    1.0212178906e+05
    2.4379042909e-02    1.0210567969e+05
    2.4399809539e-02    1.0208591406e+05
    2.4420566857e-02    1.0206053125e+05
    2.4441312999e-02    1.0203231250e+05
    2.4462047964e-02    1.0199881250e+05
    2.4482775480e-02    1.0196355469e+05
    2.4503491819e-02    1.0191961719e+05
    2.4524198845e-02    1.0188091406e+05
    2.4544894695e-02    1.0184265625e+05
    2.4565581232e-02    1.0180544531e+05
    2.4586258456e-02    1.0178387500e+05
    2.4606924504e-02    1.0175790625e+05
    2.4627581239e-02    1.0174177344e+05
    2.4648228660e-02    1.0172514844e+05
    2.4668866768e-02    1.0172403906e+05
    2.4689495564e-02    1.0172443750e+05
    2.4710113183e-02    1.0173716406e+05
    2.4730721489e-02    1.0175683594e+05
    2.4751318619e-02    1.0177811719e+05
    2.4771906435e-02    1.0179167969e+05
    2.4792486802e-02    1.0181584375e+05
    2.4813055992e-02    1.0184135156e+05
    2.4833614007e-02    1.0186046094e+05
    2.4854162708e-02    1.0188260156e+05
    2.4874702096e-02    1.0190647656e+05
    2.4895232171e-02    1.0192828906e+05
    2.4915752932e-02    1.0195207031e+05
    2.4936262518e-02    1.0196953125e+05
    2.4956764653e-02    1.0198737500e+05
    2.4977253750e-02    1.0199857031e+05
    2.4997735396e-02    1.0200996875e+05
    2.5018205866e-02    1.0203205469e+05
    2.5038668886e-02    1.0204507031e+05
    2.5059120730e-02    1.0205763281e+05
    2.5079563260e-02    1.0206100781e+05
    2.5099996477e-02    1.0207402344e+05
    2.5120420381e-02    1.0208572656e+05
    2.5140833110e-02    1.0209847656e+05
    2.5161236525e-02    1.0211366406e+05
    2.5181630626e-02    1.0213433594e+05
    2.5202017277e-02    1.0214000000e+05
    2.5222390890e-02    1.0215013281e+05
    2.5242757052e-02    1.0215697656e+05
    2.5263112038e-02    1.0216283594e+05
    2.5283459574e-02    1.0217433594e+05
    2.5303795934e-02    1.0217485156e+05
    2.5324124843e-02    1.0218321094e+05
    2.5344440714e-02    1.0218169531e+05
    2.5364749134e-02    1.0218046094e+05
    2.5385048240e-02    1.0217658594e+05
    2.5405339897e-02    1.0217685156e+05
    2.5425618514e-02    1.0217341406e+05
    2.5445887819e-02    1.0217122656e+05
    2.5466147810e-02    1.0216439844e+05
    2.5486400351e-02    1.0215188281e+05
    2.5506639853e-02    1.0214743750e+05
    2.5526873767e-02    1.0213886719e+05
    2.5547094643e-02    1.0212790625e+05
    2.5567308068e-02    1.0212218750e+05
    2.5587510318e-02    1.0212019531e+05
    2.5607703254e-02    1.0211332031e+05
    2.5627886876e-02    1.0210000781e+05
    2.5648061186e-02    1.0209585156e+05
    2.5668226182e-02    1.0208646094e+05
    2.5688380003e-02    1.0207375781e+05
    2.5708526373e-02    1.0206837500e+05
    2.5728661567e-02    1.0206416406e+05
    2.5748789310e-02    1.0205939844e+05
    2.5768904015e-02    1.0205485156e+05
    2.5789011270e-02    1.0204077344e+05
    2.5809109211e-02    1.0203500000e+05
    2.5829195976e-02    1.0202925781e+05
    2.5849273428e-02    1.0202475000e+05
    2.5869343430e-02    1.0201924219e+05
    2.5889402255e-02    1.0201371094e+05
    2.5909451768e-02    1.0200802344e+05
    2.5929493830e-02    1.0199753125e+05
    2.5949522853e-02    1.0198915625e+05
    2.5969544426e-02    1.0198430469e+05
    2.5989556685e-02    1.0198290625e+05
    2.6009559631e-02    1.0197596875e+05
    2.6029553264e-02    1.0196908594e+05
    2.6049537584e-02    1.0196319531e+05
    2.6069512591e-02    1.0195147656e+05
    2.6089478284e-02    1.0194582031e+05
    2.6109432802e-02    1.0193881250e+05
    2.6129379869e-02    1.0193339844e+05
    2.6149315760e-02    1.0192569531e+05
    2.6169244200e-02    1.0192384375e+05
    2.6189163327e-02    1.0191897656e+05
    2.6209073141e-02    1.0191331250e+05
    2.6228975505e-02    1.0190803125e+05
    2.6248866692e-02    1.0191346875e+05
    2.6268748567e-02    1.0191013281e+05
    2.6288621128e-02    1.0190809375e+05
    2.6308484375e-02    1.0190644531e+05
    2.6328338310e-02    1.0190805469e+05
    2.6348184794e-02    1.0191250781e+05
    2.6368021965e-02    1.0192315625e+05
    2.6387847960e-02    1.0193192969e+05
    2.6407664642e-02    1.0193830469e+05
    2.6427472010e-02    1.0194528906e+05
    2.6447271928e-02    1.0195486719e+05
    2.6467062533e-02    1.0196505469e+05
    2.6486843824e-02    1.0197689844e+05
    2.6506617665e-02    1.0198833594e+05
    2.6526380330e-02    1.0200527344e+05
    2.6546133682e-02    1.0201359375e+05
    2.6565877721e-02    1.0202591406e+05
    2.6585612446e-02    1.0203378906e+05
    2.6605339721e-02    1.0204078906e+05
    2.6625057682e-02    1.0205385156e+05
    2.6644766331e-02    1.0206747656e+05
    2.6664465666e-02    1.0207672656e+05
    2.6684155688e-02    1.0208853906e+05
    2.6703836396e-02    1.0209453906e+05
    2.6723509654e-02    1.0210027344e+05
    2.6743173599e-02    1.0210571094e+05
    2.6762828231e-02    1.0210717969e+05
    2.6782475412e-02    1.0211171875e+05
    2.6802113280e-02    1.0211010156e+05
    2.6821739972e-02    1.0211355469e+05
    2.6841359213e-02    1.0211510156e+05
    2.6860967278e-02    1.0210658594e+05
    2.6880569756e-02    1.0210518750e+05
    2.6900164783e-02    1.0209530469e+05
    2.6919748634e-02    1.0209019531e+05
    2.6939325035e-02    1.0208583594e+05
    2.6958892122e-02    1.0207121094e+05
    2.6978449896e-02    1.0205561719e+05
    2.6997998357e-02    1.0204939844e+05
    2.7017539367e-02    1.0203369531e+05
    2.7037071064e-02    1.0202634375e+05
    2.7056595311e-02    1.0201321094e+05
    2.7076110244e-02    1.0200041406e+05
    2.7095617726e-02    1.0199178125e+05
    2.7115115896e-02    1.0197933594e+05
    2.7134604752e-02    1.0197200000e+05
    2.7154086158e-02    1.0196572656e+05
    2.7173558250e-02    1.0195763281e+05
    2.7193021029e-02    1.0195063281e+05
    2.7212476358e-02    1.0194621875e+05
    2.7231922373e-02    1.0194227344e+05
    2.7251357213e-02    1.0194599219e+05
    2.7270786464e-02    1.0194931250e+05
    2.7290204540e-02    1.0195825781e+05
    2.7309613302e-02    1.0195946094e+05
    2.7329014614e-02    1.0196137500e+05
    2.7348404750e-02    1.0197205469e+05
    2.7367785573e-02    1.0197483594e+05
    2.7387158945e-02    1.0197946094e+05
    2.7406521142e-02    1.0198891406e+05
    2.7425874025e-02    1.0199555469e+05
    2.7445219457e-02    1.0200471094e+05
    2.7464553714e-02    1.0201178125e+05
    2.7483878657e-02    1.0202153906e+05
    2.7503194287e-02    1.0203066406e+05
    2.7522502467e-02    1.0203478125e+05
    2.7541799471e-02    1.0203771094e+05
    2.7561087161e-02    1.0204053125e+05
    2.7580365539e-02    1.0204428125e+05
    2.7599634603e-02    1.0204560156e+05
    2.7618894354e-02    1.0204896094e+05
    2.7638144791e-02    1.0204510156e+05
    2.7657385916e-02    1.0204653125e+05
    2.7676619589e-02    1.0204656250e+05
    2.7695843950e-02    1.0204877344e+05
    2.7715058997e-02    1.0204915625e+05
    2.7734262869e-02    1.0205056250e+05
    2.7753459290e-02    1.0205122656e+05
    2.7772648260e-02    1.0204747656e+05
    2.7791827917e-02    1.0204696094e+05
    2.7810998261e-02    1.0204678125e+05
    2.7830159292e-02    1.0204781250e+05
    2.7849311009e-02    1.0204832031e+05
    2.7868455276e-02    1.0205040625e+05
    2.7887590230e-02    1.0205792969e+05
    2.7906717733e-02    1.0206583594e+05
    2.7925835922e-02    1.0206925781e+05
    2.7944946662e-02    1.0207381250e+05
    2.7964048088e-02    1.0207371094e+05
    2.7983140200e-02    1.0207469531e+05
    2.8002224863e-02    1.0207700000e+05
    2.8021300212e-02    1.0208664844e+05
    2.8040368110e-02    1.0209077344e+05
    2.8059426695e-02    1.0209496875e+05
    2.8078475967e-02    1.0209808594e+05
    2.8097519651e-02    1.0210122656e+05
    2.8116554022e-02    1.0210539844e+05
    2.8135580942e-02    1.0210669531e+05
    2.8154598549e-02    1.0210900000e+05
    2.8173606843e-02    1.0211062500e+05
    2.8192607686e-02    1.0210985156e+05
    2.8211599216e-02    1.0210638281e+05
    2.8230583295e-02    1.0210739844e+05
    2.8249559924e-02    1.0211066406e+05
    2.8268527240e-02    1.0210899219e+05
    2.8287487105e-02    1.0210928906e+05
    2.8306435794e-02    1.0210928125e+05
    2.8325378895e-02    1.0210553906e+05
    2.8344312683e-02    1.0210549219e+05
    2.8363237157e-02    1.0210281250e+05
    2.8382156044e-02    1.0209928906e+05
    2.8401065618e-02    1.0209785156e+05
    2.8419965878e-02    1.0209615625e+05
    2.8438858688e-02    1.0209552344e+05
    2.8457742184e-02    1.0208430469e+05
    2.8476616368e-02    1.0209149219e+05
    2.8495483100e-02    1.0209297656e+05
    2.8514338657e-02    1.0209218750e+05
    2.8533160686e-02    1.0208666406e+05
    2.8551930562e-02    1.0208583594e+05
    2.8570635244e-02    1.0209085156e+05
    2.8589271009e-02    1.0208788281e+05
    2.8607837856e-02    1.0209071094e+05
    2.8626350686e-02    1.0209027344e+05
    2.8644818813e-02    1.0208996875e+05
    2.8663259000e-02    1.0208733594e+05
    2.8681686148e-02    1.0209068750e+05
    2.8700113297e-02    1.0209069531e+05
    2.8718546033e-02    1.0209203125e+05
    2.8736986220e-02    1.0209121094e+05
    2.8755431995e-02    1.0209283594e+05
    2.8773877770e-02    1.0209371094e+05
    2.8792314231e-02    1.0210033594e+05
    2.8810730204e-02    1.0210153906e+05
    2.8829116374e-02    1.0210488281e+05
    2.8847465292e-02    1.0210652344e+05
    2.8865773231e-02    1.0210105469e+05
    2.8884036466e-02    1.0210137500e+05
    2.8902258724e-02    1.0210178906e+05
    2.8920443729e-02    1.0211208594e+05
    2.8938598931e-02    1.0211328906e+05
    2.8956729919e-02    1.0210646875e+05
    2.8974846005e-02    1.0211003906e+05
    2.8992949054e-02    1.0211597656e+05
    2.9011042789e-02    1.0211849219e+05
    2.9029129073e-02    1.0211164844e+05
    2.9047204182e-02    1.0211760156e+05
    2.9065268114e-02    1.0212460156e+05
    2.9083315283e-02    1.0211919531e+05
    2.9101338238e-02    1.0211878125e+05
    2.9119335115e-02    1.0212072656e+05
    2.9137304053e-02    1.0212912500e+05
    2.9155241325e-02    1.0212247656e+05
    2.9173148796e-02    1.0212513281e+05
    2.9191024601e-02    1.0213128906e+05
    2.9208874330e-02    1.0213285156e+05
    2.9226697981e-02    1.0212946094e+05
    2.9244501144e-02    1.0213002344e+05
    2.9262285680e-02    1.0213105469e+05
    2.9280053452e-02    1.0213132031e+05
    2.9297806323e-02    1.0212636719e+05
    2.9315544292e-02    1.0213141406e+05
    2.9333265498e-02    1.0213084375e+05
    2.9350971803e-02    1.0213130469e+05
    2.9368655756e-02    1.0213166406e+05
    2.9386319220e-02    1.0212636719e+05
    2.9403960332e-02    1.0212657031e+05
    2.9421577230e-02    1.0212557031e+05
    2.9439168051e-02    1.0213002344e+05
    2.9456734657e-02    1.0212142969e+05
    2.9474277049e-02    1.0212655469e+05
    2.9491795227e-02    1.0213268750e+05
    2.9509292915e-02    1.0213196875e+05
    2.9526771978e-02    1.0213371875e+05
    2.9544232413e-02    1.0213432031e+05
    2.9561674222e-02    1.0213492969e+05
    2.9579099268e-02    1.0213610156e+05
    2.9596509412e-02    1.0213615625e+05
    2.9613900930e-02    1.0213683594e+05
    2.9631273821e-02    1.0213765625e+05
    2.9648626223e-02    1.0214037500e+05
    2.9665958136e-02    1.0214105469e+05
    2.9683271423e-02    1.0215180469e+05
    2.9700560495e-02    1.0215341406e+05
    2.9717829078e-02    1.0214985156e+05
    2.9735075310e-02    1.0214827344e+05
    2.9752301052e-02    1.0214717969e+05
    2.9769508168e-02    1.0215184375e+05
    2.9786696658e-02    1.0215397656e+05
    2.9803866521e-02    1.0215902344e+05
    2.9821017757e-02    1.0215421094e+05
    2.9838152230e-02    1.0215967969e+05
    2.9855269939e-02    1.0215569531e+05
    2.9872370884e-02    1.0216612500e+05
    2.9889453202e-02    1.0216453906e+05
    2.9906518757e-02    1.0215877344e+05
    2.9923565686e-02    1.0216053125e+05
    2.9940593988e-02    1.0216877344e+05
    2.9957601801e-02    1.0217028125e+05
    2.9974590987e-02    1.0216591406e+05
    2.9991561547e-02    1.0216732031e+05
    3.0008511618e-02    1.0216867969e+05
    3.0025444925e-02    1.0216986719e+05
    3.0042361468e-02    1.0217089844e+05
    3.0059259385e-02    1.0217197656e+05
    3.0076142401e-02    1.0217317969e+05
    3.0093006790e-02    1.0217500000e+05
    3.0109854415e-02    1.0217681250e+05
    3.0126683414e-02    1.0217797656e+05
    3.0143497512e-02    1.0217903125e+05
    3.0160292983e-02    1.0217065625e+05
    3.0177071691e-02    1.0217067969e+05
    3.0193833634e-02    1.0217107031e+05
    3.0210576952e-02    1.0217175781e+05
    3.0227303505e-02    1.0216233594e+05
    3.0244011432e-02    1.0216221094e+05
    3.0260702595e-02    1.0215937500e+05
    3.0277376994e-02    1.0215092969e+05
    3.0294034630e-02    1.0214877344e+05
    3.0310675502e-02    1.0213594531e+05
    3.0327299610e-02    1.0213324219e+05
    3.0343905091e-02    1.0213043750e+05
    3.0360495672e-02    1.0212766406e+05
    3.0377071351e-02    1.0212485156e+05
    3.0393628404e-02    1.0212139844e+05
    3.0410168692e-02    1.0210962500e+05
    3.0426690355e-02    1.0210603906e+05
    3.0443195254e-02    1.0209996094e+05
    3.0459685251e-02    1.0208766406e+05
    3.0476156622e-02    1.0208324219e+05
    3.0492611229e-02    1.0207946094e+05
    3.0509050936e-02    1.0208338281e+05
    3.0525473878e-02    1.0207896094e+05
    3.0541881919e-02    1.0207539844e+05
    3.0558273196e-02    1.0207686719e+05
    3.0574647710e-02    1.0207908594e+05
    3.0591005459e-02    1.0207605469e+05
    3.0607348308e-02    1.0208261719e+05
    3.0623674393e-02    1.0208046094e+05
    3.0639985576e-02    1.0208741406e+05
    3.0656279996e-02    1.0208916406e+05
    3.0672557652e-02    1.0209853125e+05
    3.0688818544e-02    1.0210282031e+05
    3.0705062672e-02    1.0210992969e+05
    3.0721291900e-02    1.0211878906e+05
    3.0737506226e-02    1.0212234375e+05
    3.0753703788e-02    1.0213036719e+05
    3.0769886449e-02    1.0213846094e+05
    3.0786054209e-02    1.0214053906e+05
    3.0802207068e-02    1.0214491406e+05
    3.0818343163e-02    1.0214825781e+05
    3.0834466219e-02    1.0215171094e+05
    3.0850572512e-02    1.0215530469e+05
    3.0866663903e-02    1.0215796094e+05
    3.0882738531e-02    1.0217225000e+05
    3.0898798257e-02    1.0217628906e+05
    3.0914843082e-02    1.0217153906e+05
    3.0930871144e-02    1.0217458594e+05
    3.0946886167e-02    1.0217852344e+05
    3.0962884426e-02    1.0217864844e+05
    3.0978867784e-02    1.0217428125e+05
    3.0994836241e-02    1.0217649219e+05
    3.1010789797e-02    1.0217843750e+05
    3.1026728451e-02    1.0217208594e+05
    3.1042650342e-02    1.0217246875e+05
    3.1058559194e-02    1.0217509375e+05
    3.1074455008e-02    1.0217652344e+05
    3.1090334058e-02    1.0217783594e+05
    3.1106200069e-02    1.0217661719e+05
    3.1122051179e-02    1.0217172656e+05
    3.1137887388e-02    1.0217236719e+05
    3.1153710559e-02    1.0217152344e+05
    3.1169516966e-02    1.0216930469e+05
    3.1185310334e-02    1.0216213281e+05
    3.1201090664e-02    1.0216158594e+05
    3.1216854230e-02    1.0215977344e+05
    3.1232602894e-02    1.0215883594e+05
    3.1248336658e-02    1.0214972656e+05
    3.1264055520e-02    1.0214864844e+05
    3.1279761344e-02    1.0214753906e+05
    3.1295452267e-02    1.0214643750e+05
    3.1311132014e-02    1.0214635156e+05
    3.1326796860e-02    1.0214502344e+05
    3.1342446804e-02    1.0214343750e+05
    3.1358085573e-02    1.0213358594e+05
    3.1373709440e-02    1.0213049219e+05
    3.1389318407e-02    1.0212860156e+05
    3.1404916197e-02    1.0213388281e+05
    3.1420499086e-02    1.0213471094e+05
    3.1436067075e-02    1.0213339844e+05
    3.1451620162e-02    1.0213341406e+05
    3.1467158347e-02    1.0213224219e+05
    3.1482685357e-02    1.0213100781e+05
    3.1498193741e-02    1.0212974219e+05
    3.1513694674e-02    1.0212962500e+05
    3.1529176980e-02    1.0212911719e+05
    3.1544648111e-02    1.0212825781e+05
    3.1560108066e-02    1.0213058594e+05
    3.1575553119e-02    1.0213631250e+05
    3.1590986997e-02    1.0213660156e+05
    3.1606405973e-02    1.0214199219e+05
    3.1621813774e-02    1.0214799219e+05
    3.1637206674e-02    1.0214960156e+05
    3.1652588397e-02    1.0215058594e+05
    3.1667951494e-02    1.0214222656e+05
    3.1683307141e-02    1.0214403906e+05
    3.1698647887e-02    1.0214472656e+05
    3.1713977456e-02    1.0214539844e+05
    3.1729292125e-02    1.0214497656e+05
    3.1744595617e-02    1.0214569531e+05
    3.1759884208e-02    1.0214760156e+05
    3.1775161624e-02    1.0214836719e+05
    3.1790427864e-02    1.0214889844e+05
    3.1805675477e-02    1.0214915625e+05
    3.1820915639e-02    1.0213987500e+05
    3.1836140901e-02    1.0213891406e+05
    3.1851354986e-02    1.0213899219e+05
    3.1866557896e-02    1.0213861719e+05
    3.1881745905e-02    1.0214255469e+05
    3.1896922737e-02    1.0214653906e+05
    3.1912088394e-02    1.0214625000e+05
    3.1927239150e-02    1.0214600000e+05
    3.1942378730e-02    1.0214641406e+05
    3.1957507133e-02    1.0214560156e+05
    3.1972620636e-02    1.0214596875e+05
    3.1987726688e-02    1.0214632031e+05
    3.2002814114e-02    1.0214659375e+05
    3.2017890364e-02    1.0214685156e+05
    3.2032959163e-02    1.0214700000e+05
    3.2048013061e-02    1.0214712500e+05
    3.2063052058e-02    1.0214591406e+05
    3.2078083605e-02    1.0214343750e+05
    3.2093103975e-02    1.0213493750e+05
    3.2108109444e-02    1.0213442969e+05
    3.2123107463e-02    1.0214335156e+05
    3.2138090581e-02    1.0214321094e+05
    3.2153062522e-02    1.0214317969e+05
    3.2168023288e-02    1.0214380469e+05
    3.2182972878e-02    1.0214450781e+05
    3.2197911292e-02    1.0214358594e+05
    3.2212834805e-02    1.0214381250e+05
    3.2227750868e-02    1.0214411719e+05
    3.2242652029e-02    1.0214447656e+05
    3.2257542014e-02    1.0214960156e+05
    3.2272424549e-02    1.0215339844e+05
    3.2287292182e-02    1.0214683594e+05
    3.2302148640e-02    1.0214487500e+05
    3.2316997647e-02    1.0214628906e+05
    3.2331831753e-02    1.0214658594e+05
    3.2346658409e-02    1.0214746094e+05
    3.2361470163e-02    1.0214890625e+05
    3.2376270741e-02    1.0214980469e+05
    3.2391063869e-02    1.0215064844e+05
    3.2405842096e-02    1.0215141406e+05
    3.2420612872e-02    1.0215153125e+05
    3.2435368747e-02    1.0215218750e+05
    3.2450113446e-02    1.0215231250e+05
    3.2464850694e-02    1.0215253906e+05
    3.2479573041e-02    1.0215343750e+05
    3.2494287938e-02    1.0215383594e+05
    3.2508991659e-02    1.0215321094e+05
    3.2523684204e-02    1.0215500781e+05
    3.2538365573e-02    1.0215637500e+05
    3.2553035766e-02    1.0215674219e+05
    3.2567698509e-02    1.0215832031e+05
    3.2582346350e-02    1.0215984375e+05
    3.2596986741e-02    1.0216203906e+05
    3.2611619681e-02    1.0216185156e+05
    3.2626237720e-02    1.0216394531e+05
    3.2640848309e-02    1.0216410156e+05
    3.2655447721e-02    1.0216403125e+05
    3.2670035958e-02    1.0216433594e+05
    3.2684613019e-02    1.0216221094e+05
    3.2699178904e-02    1.0215517969e+05
    3.2713737339e-02    1.0215503906e+05
    3.2728284597e-02    1.0215602344e+05
    3.2742820680e-02    1.0215590625e+05
    3.2757349312e-02    1.0215353906e+05
    3.2771866769e-02    1.0215178906e+05
    3.2786373049e-02    1.0215121875e+05
    3.2800871879e-02    1.0215349219e+05
    3.2815355808e-02    1.0215286719e+05
    3.2829832286e-02    1.0215272656e+05
    3.2844301313e-02    1.0215239844e+05
    3.2858755440e-02    1.0215133594e+05
    3.2873202115e-02    1.0214896094e+05
    3.2887637615e-02    1.0214638281e+05
    3.2902065665e-02    1.0214646875e+05
    3.2916482538e-02    1.0214650781e+05
    3.2930891961e-02    1.0214482031e+05
    3.2945290208e-02    1.0214416406e+05
    3.2959677279e-02    1.0213250000e+05
    3.2974056900e-02    1.0213115625e+05
    3.2988425344e-02    1.0213439844e+05
    3.3002786338e-02    1.0213744531e+05
    3.3017136157e-02    1.0213703906e+05
    3.3031478524e-02    1.0212814844e+05
    3.3045809716e-02    1.0213319531e+05
    3.3060129732e-02    1.0213712500e+05
    3.3074442297e-02    1.0213777344e+05
    3.3088747412e-02    1.0213835156e+05
    3.3103041351e-02    1.0213435156e+05
    3.3117324114e-02    1.0213471875e+05
    3.3131599426e-02    1.0212692969e+05
    3.3145863563e-02    1.0213405469e+05
    3.3160120249e-02    1.0213080469e+05
    3.3174365759e-02    1.0213219531e+05
    3.3188603818e-02    1.0212657031e+05
    3.3202830702e-02    1.0212232031e+05
    3.3217050135e-02    1.0212708594e+05
    3.3231258392e-02    1.0212499219e+05
    3.3245459199e-02    1.0212764844e+05
    3.3259648830e-02    1.0211890625e+05
    3.3273831010e-02    1.0211577344e+05
    3.3288005739e-02    1.0212031250e+05
    3.3302169293e-02    1.0211959375e+05
    3.3316325396e-02    1.0211728906e+05
    3.3330474049e-02    1.0211684375e+05
    3.3344611526e-02    1.0211527344e+05
    3.3358741552e-02    1.0211487500e+05
    3.3372864127e-02    1.0211921094e+05
    3.3386975527e-02    1.0211759375e+05
    3.3401079476e-02    1.0211412500e+05
    3.3415172249e-02    1.0211525781e+05
    3.3429257572e-02    1.0211222656e+05
    3.3443335444e-02    1.0211035156e+05
    3.3457405865e-02    1.0211071094e+05
    3.3471468836e-02    1.0210983594e+05
    3.3485524356e-02    1.0210774219e+05
    3.3499568701e-02    1.0210787500e+05
    3.3513605595e-02    1.0210684375e+05
    3.3527631313e-02    1.0210457031e+05
    3.3541653305e-02    1.0209996094e+05
    3.3555664122e-02    1.0209553906e+05
    3.3569667488e-02    1.0209097656e+05
    3.3583663404e-02    1.0209040625e+05
    3.3597648144e-02    1.0208978906e+05
    3.3611625433e-02    1.0209041406e+05
    3.3625595272e-02    1.0209185156e+05
    3.3639557660e-02    1.0209337500e+05
    3.3653512597e-02    1.0209265625e+05
    3.3667460084e-02    1.0209083594e+05
    3.3681396395e-02    1.0208960156e+05
    3.3695328981e-02    1.0208497656e+05
    3.3709254116e-02    1.0208364844e+05
    3.3723168075e-02    1.0207985156e+05
    3.3737078309e-02    1.0208013281e+05
    3.3750977367e-02    1.0207818750e+05
    3.3764872700e-02    1.0207759375e+05
    3.3778760582e-02    1.0207696875e+05
    3.3792637289e-02    1.0207577344e+05
    3.3806510270e-02    1.0207357031e+05
    3.3820372075e-02    1.0207484375e+05
    3.3834230155e-02    1.0207612500e+05
    3.3848077059e-02    1.0207283594e+05
    3.3861916512e-02    1.0206689844e+05
    3.3875752240e-02    1.0206853906e+05
    3.3889576793e-02    1.0207292969e+05
    3.3903393894e-02    1.0207003906e+05
    3.3917203546e-02    1.0206187500e+05
    3.3931009471e-02    1.0206060156e+05
    3.3944804221e-02    1.0205871875e+05
    3.3958595246e-02    1.0205690625e+05
    3.3972378820e-02    1.0205568750e+05
    3.3986151218e-02    1.0205447656e+05
    3.3999919891e-02    1.0205210156e+05
    3.4013681114e-02    1.0205321875e+05
    3.4027434886e-02    1.0204968750e+05
    3.4041177481e-02    1.0204841406e+05
    3.4054916352e-02    1.0204818750e+05
    3.4068647772e-02    1.0204567969e+05
    3.4082375467e-02    1.0204425781e+05
    3.4096091986e-02    1.0204391406e+05
    3.4109804779e-02    1.0204221875e+05
    3.4123510122e-02    1.0204096094e+05
    3.4137208015e-02    1.0203617969e+05
    3.4150898457e-02    1.0203409375e+05
    3.4164581448e-02    1.0203200781e+05
    3.4178260714e-02    1.0203099219e+05
    3.4191932529e-02    1.0202543750e+05
    3.4205596894e-02    1.0202315625e+05
    3.4219253808e-02    1.0201987500e+05
    3.4232903272e-02    1.0202066406e+05
    3.4246545285e-02    1.0202155469e+05
    3.4260183573e-02    1.0201846094e+05
    3.4273810685e-02    1.0201771094e+05
    3.4287434071e-02    1.0201531250e+05
    3.4301050007e-02    1.0201408594e+05
    3.4314658493e-02    1.0201121094e+05
    3.4328263253e-02    1.0201062500e+05
    3.4341860563e-02    1.0200775000e+05
    3.4355450422e-02    1.0200664844e+05
    3.4369036555e-02    1.0200446094e+05
    3.4382611513e-02    1.0200339844e+05
    3.4396182746e-02    1.0200183594e+05
    3.4409742802e-02    1.0200090625e+05
    3.4423299134e-02    1.0199882031e+05
    3.4436848015e-02    1.0199786719e+05
    3.4450393170e-02    1.0199575000e+05
    3.4463927150e-02    1.0199361719e+05
    3.4477461129e-02    1.0199253125e+05
    3.4490987659e-02    1.0199022656e+05
    3.4504506737e-02    1.0198847656e+05
    3.4518022090e-02    1.0198722656e+05
    3.4531529993e-02    1.0198602344e+05
    3.4545030445e-02    1.0198196875e+05
    3.4558523446e-02    1.0197902344e+05
    3.4572008997e-02    1.0198003906e+05
    3.4585487098e-02    1.0197881250e+05
    3.4598957747e-02    1.0197649219e+05
    3.4612424672e-02    1.0197416406e+05
    3.4625884145e-02    1.0197353906e+05
    3.4639336169e-02    1.0196133594e+05
    3.4652780741e-02    1.0196453906e+05
    3.4666225314e-02    1.0196721875e+05
    3.4679658711e-02    1.0196475000e+05
    3.4693088382e-02    1.0196400781e+05
    3.4706510603e-02    1.0196162500e+05
    3.4719929099e-02    1.0195352344e+05
    3.4733340144e-02    1.0194932031e+05
    3.4746743739e-02    1.0195558594e+05
    3.4760143608e-02    1.0195502344e+05
    3.4773536026e-02    1.0194880469e+05
    3.4786924720e-02    1.0194492969e+05
    3.4800305963e-02    1.0194331250e+05
    3.4813679755e-02    1.0194971094e+05
    3.4827046096e-02    1.0194577344e+05
    3.4840408713e-02    1.0193614844e+05
    3.4853763878e-02    1.0193439844e+05
    3.4867111593e-02    1.0194177344e+05
    3.4880455583e-02    1.0193490625e+05
    3.4893795848e-02    1.0192772656e+05
    3.4907124937e-02    1.0192635156e+05
    3.4920454025e-02    1.0192910156e+05
    3.4933775663e-02    1.0192549219e+05
    3.4947093576e-02    1.0192141406e+05
    3.4960404038e-02    1.0192091406e+05
    3.4973710775e-02    1.0192233594e+05
    3.4987010062e-02    1.0192028906e+05
endcurve
