Curveplot
LS-DYNA keyword deck by LS-PrePost                          
Time
Pressure
Defined Connection
Pressure @ 53 #pts=1745
* Minval=     9.9265726562e+04 at time=         0.0154616646
* Maxval=     1.6942778125e+05 at time=         0.0066911154
    0.0000000000e+00    9.9999093750e+04
    3.3812357287e-05    9.9999093750e+04
    6.1326652940e-05    9.9998093750e+04
    8.9102875791e-05    9.9998125000e+04
    1.1682785407e-04    9.9998156250e+04
    1.4461828687e-04    9.9999531250e+04
    1.7236733402e-04    9.9999992188e+04
    2.0016246708e-04    1.0000856250e+05
    2.2795486439e-04    1.0000108594e+05
    2.5574557367e-04    1.0000049219e+05
    2.8353667585e-04    9.9998507812e+04
    3.1133697485e-04    9.9991335938e+04
    3.3912662184e-04    1.0000035156e+05
    3.6691734567e-04    1.0000049219e+05
    3.9470891352e-04    1.0000082031e+05
    4.2249175021e-04    1.0000521094e+05
    4.5027161832e-04    1.0000040625e+05
    4.7804549104e-04    9.9998187500e+04
    5.0581363030e-04    1.0000147656e+05
    5.3357944125e-04    1.0000049219e+05
    5.6134146871e-04    1.0000194531e+05
    5.8909942163e-04    1.0000209375e+05
    6.1685312539e-04    9.9991937500e+04
    6.4460188150e-04    1.0000087500e+05
    6.7234638846e-04    1.0000210156e+05
    7.0008635521e-04    1.0000191406e+05
    7.2782178177e-04    9.9994664062e+04
    7.5555208605e-04    1.0000066406e+05
    7.8327720985e-04    1.0000141406e+05
    8.1099680392e-04    1.0000421875e+05
    8.3871174138e-04    1.0000208594e+05
    8.6642213864e-04    1.0000127344e+05
    8.9412782108e-04    1.0000134375e+05
    9.2182843946e-04    9.9998617188e+04
    9.4952445943e-04    9.9997914062e+04
    9.7721535712e-04    9.9996539062e+04
    1.0049008997e-03    1.0000089844e+05
    1.0325826006e-03    1.0000103906e+05
    1.0602590628e-03    1.0000375000e+05
    1.0879321489e-03    1.0000281250e+05
    1.1155996472e-03    1.0000263281e+05
    1.1432634201e-03    9.9992687500e+04
    1.1709230021e-03    9.9992039062e+04
    1.1985785095e-03    1.0000071094e+05
    1.2262313394e-03    1.0000972656e+05
    1.2538790470e-03    1.0000736719e+05
    1.2815232622e-03    1.0000277344e+05
    1.3091630535e-03    9.9999648438e+04
    1.3368004002e-03    9.9998617188e+04
    1.3644339051e-03    1.0000959375e+05
    1.3920635683e-03    1.0002621094e+05
    1.4196902048e-03    1.0005114844e+05
    1.4473132323e-03    1.0009947656e+05
    1.4749332331e-03    1.0019028906e+05
    1.5025498578e-03    1.0032525000e+05
    1.5301633393e-03    1.0052146875e+05
    1.5577742597e-03    1.0077366406e+05
    1.5853822697e-03    1.0109942969e+05
    1.6129877185e-03    1.0146713281e+05
    1.6405890929e-03    1.0186591406e+05
    1.6681876732e-03    1.0225022656e+05
    1.6957829939e-03    1.0260082031e+05
    1.7233766848e-03    1.0287071094e+05
    1.7509678146e-03    1.0304992969e+05
    1.7785291420e-03    1.0313606250e+05
    1.8060547300e-03    1.0313231250e+05
    1.8335470231e-03    1.0305628906e+05
    1.8610082334e-03    1.0292335156e+05
    1.8884401070e-03    1.0275299219e+05
    1.9158447394e-03    1.0257809375e+05
    1.9432241097e-03    1.0241568750e+05
    1.9705800805e-03    1.0229286719e+05
    1.9979148638e-03    1.0221996094e+05
    2.0252298564e-03    1.0219196094e+05
    2.0525271539e-03    1.0221128906e+05
    2.0798076876e-03    1.0227310156e+05
    2.1070730872e-03    1.0234835156e+05
    2.1343247499e-03    1.0242010156e+05
    2.1615643054e-03    1.0247943750e+05
    2.1887931507e-03    1.0252350000e+05
    2.2160108201e-03    1.0254341406e+05
    2.2432196420e-03    1.0254369531e+05
    2.2704207804e-03    1.0251814844e+05
    2.2976147011e-03    1.0248022656e+05
    2.3248014040e-03    1.0243980469e+05
    2.3519827519e-03    1.0241006250e+05
    2.3791582789e-03    1.0239349219e+05
    2.4063293822e-03    1.0238794531e+05
    2.4334960617e-03    1.0238756250e+05
    2.4606597144e-03    1.0239093750e+05
    2.4878205732e-03    1.0241086719e+05
    2.5149781723e-03    1.0242885156e+05
    2.5421329774e-03    1.0244269531e+05
    2.5692859199e-03    1.0245050781e+05
    2.5964374654e-03    1.0245180469e+05
    2.6235871483e-03    1.0243869531e+05
    2.6507352013e-03    1.0243685156e+05
    2.6778825559e-03    1.0242669531e+05
    2.7050296776e-03    1.0242137500e+05
    2.7321761008e-03    1.0241983594e+05
    2.7593218256e-03    1.0241722656e+05
    2.7864677832e-03    1.0242052344e+05
    2.8136142064e-03    1.0242263281e+05
    2.8407603968e-03    1.0242883594e+05
    2.8679079842e-03    1.0244114844e+05
    2.8950548731e-03    1.0246218750e+05
    2.9222022276e-03    1.0248771094e+05
    2.9493502807e-03    1.0252552344e+05
    2.9764990322e-03    1.0257847656e+05
    3.0036487151e-03    1.0264403125e+05
    3.0307997949e-03    1.0271589844e+05
    3.0579508748e-03    1.0281171094e+05
    3.0851035845e-03    1.0291507031e+05
    3.1122572254e-03    1.0302427344e+05
    3.1394117977e-03    1.0312031250e+05
    3.1665677670e-03    1.0320314844e+05
    3.1937246677e-03    1.0326864844e+05
    3.2208829653e-03    1.0330253125e+05
    3.2480424270e-03    1.0330346094e+05
    3.2752046827e-03    1.0328917969e+05
    3.2952371985e-03    1.0325540625e+05
    3.3145032357e-03    1.0322474219e+05
    3.3336398192e-03    1.0318058594e+05
    3.3528339118e-03    1.0314077344e+05
    3.3720366191e-03    1.0309972656e+05
    3.3912549261e-03    1.0306497656e+05
    3.4104890656e-03    1.0302541406e+05
    3.4297339153e-03    1.0298125781e+05
    3.4486323129e-03    1.0293141406e+05
    3.4671388566e-03    1.0288082031e+05
    3.4854323603e-03    1.0283091406e+05
    3.5036695190e-03    1.0277065625e+05
    3.5219141282e-03    1.0270116406e+05
    3.5401545465e-03    1.0263268750e+05
    3.5583588760e-03    1.0255864844e+05
    3.5765271168e-03    1.0248705469e+05
    3.5946895368e-03    1.0242828906e+05
    3.6139658187e-03    1.0237199219e+05
    3.6330535077e-03    1.0232428906e+05
    3.6521453876e-03    1.0228228906e+05
    3.6699753255e-03    1.0225618750e+05
    3.6875614896e-03    1.0223286719e+05
    3.7050142419e-03    1.0221663281e+05
    3.7224807311e-03    1.0220253906e+05
    3.7400643341e-03    1.0218116406e+05
    3.7577797193e-03    1.0216600781e+05
    3.7755726371e-03    1.0215056250e+05
    3.7933769636e-03    1.0213902344e+05
    3.8111612666e-03    1.0212877344e+05
    3.8289318327e-03    1.0212981250e+05
    3.8467168342e-03    1.0212840625e+05
    3.8645383902e-03    1.0212414844e+05
    3.8824023213e-03    1.0211740625e+05
    3.9002960548e-03    1.0210978906e+05
    3.9182156324e-03    1.0209278906e+05
    3.9361710660e-03    1.0206503906e+05
    3.9541716687e-03    1.0204746094e+05
    3.9733103476e-03    1.0202997656e+05
    3.9924201556e-03    1.0201335156e+05
    4.0104058571e-03    1.0200662500e+05
    4.0284004062e-03    1.0199905469e+05
    4.0464363992e-03    1.0198403906e+05
    4.0656095371e-03    1.0197867969e+05
    4.0847789496e-03    1.0196464844e+05
    4.1039343923e-03    1.0195225000e+05
    4.1219722480e-03    1.0194856250e+05
    4.1400394402e-03    1.0194577344e+05
    4.1591953486e-03    1.0193444531e+05
    4.1784178466e-03    1.0193044531e+05
    4.1976389475e-03    1.0192808594e+05
    4.2168586515e-03    1.0192136719e+05
    4.2360713705e-03    1.0191118750e+05
    4.2552771047e-03    1.0190071094e+05
    4.2744791135e-03    1.0188928125e+05
    4.2936825193e-03    1.0187855469e+05
    4.3128933758e-03    1.0187136719e+05
    4.3321144767e-03    1.0185641406e+05
    4.3513495475e-03    1.0184008594e+05
    4.3705995195e-03    1.0181710156e+05
    4.3898657896e-03    1.0179518750e+05
    4.4091497548e-03    1.0177175781e+05
    4.4284537435e-03    1.0174635156e+05
    4.4477786869e-03    1.0171852344e+05
    4.4671236537e-03    1.0167706250e+05
    4.4864914380e-03    1.0162996094e+05
    4.5058806427e-03    1.0156577344e+05
    4.5252908021e-03    1.0149057031e+05
    4.5447219163e-03    1.0140834375e+05
    4.5641721226e-03    1.0131228906e+05
    4.5836409554e-03    1.0120921094e+05
    4.6031279489e-03    1.0109966406e+05
    4.6226321720e-03    1.0098553125e+05
    4.6421540901e-03    1.0086485156e+05
    4.6616927721e-03    1.0074561719e+05
    4.6812482178e-03    1.0062246094e+05
    4.7008208930e-03    1.0050508594e+05
    4.7204112634e-03    1.0039485156e+05
    4.7400193289e-03    1.0030664844e+05
    4.7596455552e-03    1.0023175000e+05
    4.7792894766e-03    1.0017928906e+05
    4.7989510931e-03    1.0014610156e+05
    4.8186304048e-03    1.0013983594e+05
    4.8383255489e-03    1.0015419531e+05
    4.8580355942e-03    1.0018797656e+05
    4.8777610064e-03    1.0023284375e+05
    4.8975008540e-03    1.0028930469e+05
    4.9172551371e-03    1.0034761719e+05
    4.9370229244e-03    1.0041581250e+05
    4.9568060786e-03    1.0047703906e+05
    4.9766036682e-03    1.0052902344e+05
    4.9964170903e-03    1.0057193750e+05
    5.0162458792e-03    1.0061353125e+05
    5.0360900350e-03    1.0064807031e+05
    5.0559476949e-03    1.0066459375e+05
    5.0758207217e-03    1.0067291406e+05
    5.0957072526e-03    1.0067325781e+05
    5.1156077534e-03    1.0067463281e+05
    5.1355226897e-03    1.0066335156e+05
    5.1554525271e-03    1.0064646094e+05
    5.1753963344e-03    1.0063230469e+05
    5.1953555085e-03    1.0061989844e+05
    5.2153295837e-03    1.0060789844e+05
    5.2353194915e-03    1.0059244531e+05
    5.2553247660e-03    1.0058269531e+05
    5.2753463387e-03    1.0057393750e+05
    5.2953832783e-03    1.0057210156e+05
    5.3154369816e-03    1.0056939844e+05
    5.3355065174e-03    1.0057378125e+05
    5.3555918857e-03    1.0058303125e+05
    5.3756926209e-03    1.0059828906e+05
    5.3958082572e-03    1.0061637500e+05
    5.4159392603e-03    1.0062903125e+05
    5.4360851645e-03    1.0064275781e+05
    5.4562464356e-03    1.0065446875e+05
    5.4764230736e-03    1.0066071875e+05
    5.4966160096e-03    1.0066578125e+05
    5.5168238468e-03    1.0066747656e+05
    5.5370470509e-03    1.0066585156e+05
    5.5572865531e-03    1.0066583594e+05
    5.5775423534e-03    1.0066790625e+05
    5.5978130549e-03    1.0067841406e+05
    5.6181000546e-03    1.0067125781e+05
    5.6384028867e-03    1.0067360156e+05
    5.6587206200e-03    1.0067543750e+05
    5.6790532544e-03    1.0067741406e+05
    5.6994007900e-03    1.0067989844e+05
    5.7197632268e-03    1.0068257031e+05
    5.7401410304e-03    1.0068539844e+05
    5.7605337352e-03    1.0068828125e+05
    5.7809422724e-03    1.0069132031e+05
    5.8013652451e-03    1.0069346875e+05
    5.8218040504e-03    1.0069694531e+05
    5.8422577567e-03    1.0070077344e+05
    5.8627268299e-03    1.0070602344e+05
    5.8832112700e-03    1.0071956250e+05
    5.9037101455e-03    1.0072424219e+05
    5.9242248535e-03    1.0072869531e+05
    5.9447535314e-03    1.0073275781e+05
    5.9641525149e-03    1.0073675781e+05
    5.9830932878e-03    1.0073958594e+05
    6.0020405799e-03    1.0074371094e+05
    6.0210367665e-03    1.0074816406e+05
    6.0400799848e-03    1.0076092969e+05
    6.0591096990e-03    1.0076837500e+05
    6.0781282373e-03    1.0077246094e+05
    6.0972142965e-03    1.0077869531e+05
    6.1162756756e-03    1.0078382031e+05
    6.1353649944e-03    1.0078841406e+05
    6.1544459313e-03    1.0080128125e+05
    6.1734300107e-03    1.0080936719e+05
    6.1924448237e-03    1.0081533594e+05
    6.2115197070e-03    1.0083049219e+05
    6.2306127511e-03    1.0083659375e+05
    6.2497169711e-03    1.0084278906e+05
    6.2688281760e-03    1.0085261719e+05
    6.2879407778e-03    1.0086389844e+05
    6.3070552424e-03    1.0087819531e+05
    6.3261794858e-03    1.0088932031e+05
    6.3453060575e-03    1.0090839844e+05
    6.3644465990e-03    1.0093652344e+05
    6.3835908659e-03    1.0096458594e+05
    6.4027444459e-03    1.0101366406e+05
    6.4219115302e-03    1.0109736719e+05
    6.4410855994e-03    1.0124057031e+05
    6.4602680504e-03    1.0153603125e+05
    6.4794607460e-03    1.0212191406e+05
    6.4986641519e-03    1.0328894531e+05
    6.5178787336e-03    1.0550761719e+05
    6.5371058881e-03    1.0941889844e+05
    6.5563363023e-03    1.1563589844e+05
    6.5755699761e-03    1.2437987500e+05
    6.5948092379e-03    1.3511801562e+05
    6.6140629351e-03    1.4643982812e+05
    6.6333152354e-03    1.5651043750e+05
    6.6525745206e-03    1.6387928125e+05
    6.6718445159e-03    1.6805765625e+05
    6.6911154427e-03    1.6942778125e+05
    6.7104012705e-03    1.6890456250e+05
    6.7296870984e-03    1.6739114062e+05
    6.7489854991e-03    1.6567664062e+05
    6.7682852969e-03    1.6417275000e+05
    6.7875892855e-03    1.6292084375e+05
    6.8069072440e-03    1.6177993750e+05
    6.8262196146e-03    1.6058023438e+05
    6.8455408327e-03    1.5921587500e+05
    6.8648783490e-03    1.5762140625e+05
    6.8842126057e-03    1.5584831250e+05
    6.9035501219e-03    1.5399034375e+05
    6.9228983484e-03    1.5212634375e+05
    6.9422605447e-03    1.5032768750e+05
    6.9616222754e-03    1.4863214062e+05
    6.9809844717e-03    1.4703270312e+05
    7.0003494620e-03    1.4551243750e+05
    7.0197195746e-03    1.4405214062e+05
    7.0390999317e-03    1.4262834375e+05
    7.0584909990e-03    1.4122551562e+05
    7.0778946392e-03    1.3985673438e+05
    7.0973108523e-03    1.3854964062e+05
    7.1167377755e-03    1.3730212500e+05
    7.1361698210e-03    1.3613409375e+05
    7.1556069888e-03    1.3504514062e+05
    7.1750483476e-03    1.3403768750e+05
    7.1944966912e-03    1.3309521875e+05
    7.2139529511e-03    1.3220557812e+05
    7.2334166616e-03    1.3137564062e+05
    7.2528840974e-03    1.3058278906e+05
    7.2723543271e-03    1.2982864844e+05
    7.2918278165e-03    1.2911152344e+05
    7.3113050312e-03    1.2842265625e+05
    7.3307845742e-03    1.2776317969e+05
    7.3502692394e-03    1.2713010156e+05
    7.3697618209e-03    1.2653215625e+05
    7.3892641813e-03    1.2594786719e+05
    7.4087800458e-03    1.2539625781e+05
    7.4282912537e-03    1.2486285156e+05
    7.4477996677e-03    1.2433912500e+05
    7.4673094787e-03    1.2383297656e+05
    7.4868267402e-03    1.2334806250e+05
    7.5063589029e-03    1.2288253906e+05
    7.5258887373e-03    1.2245092969e+05
    7.5454111211e-03    1.2204089844e+05
    7.5649353676e-03    1.2166514844e+05
    7.5844703242e-03    1.2131428125e+05
    7.6040057465e-03    1.2099896094e+05
    7.6235276647e-03    1.2071221094e+05
    7.6430505142e-03    1.2044797656e+05
    7.6625877991e-03    1.2020800781e+05
    7.6821087860e-03    1.1997912500e+05
    7.7016241848e-03    1.1976330469e+05
    7.7211544849e-03    1.1955746094e+05
    7.7406810597e-03    1.1935771094e+05
    7.7602043748e-03    1.1916374219e+05
    7.7797495760e-03    1.1898113281e+05
    7.7992938459e-03    1.1879816406e+05
    7.8188432381e-03    1.1862185156e+05
    7.8384252265e-03    1.1843928125e+05
    7.8580006957e-03    1.1825772656e+05
    7.8775910661e-03    1.1806686719e+05
    7.8972103074e-03    1.1788938281e+05
    7.9168286175e-03    1.1769906250e+05
    7.9364804551e-03    1.1750768750e+05
    7.9561360180e-03    1.1731102344e+05
    7.9758102074e-03    1.1711341406e+05
    7.9955114052e-03    1.1691708594e+05
    8.0152126029e-03    1.1671755469e+05
    8.0349491909e-03    1.1652694531e+05
    8.0546662211e-03    1.1633856250e+05
    8.0743944272e-03    1.1615803906e+05
    8.0941170454e-03    1.1597650781e+05
    8.1138620153e-03    1.1580800781e+05
    8.1336386502e-03    1.1564293750e+05
    8.1534720957e-03    1.1549041406e+05
    8.1733558327e-03    1.1535003125e+05
    8.1932730973e-03    1.1521872656e+05
    8.2132071257e-03    1.1509160156e+05
    8.2330890000e-03    1.1497596094e+05
    8.2529615611e-03    1.1486619531e+05
    8.2727763802e-03    1.1476335156e+05
    8.2926023751e-03    1.1466810156e+05
    8.3124246448e-03    1.1457103125e+05
    8.3322748542e-03    1.1447441406e+05
    8.3521194756e-03    1.1437692969e+05
    8.3719678223e-03    1.1427162500e+05
    8.3917891607e-03    1.1416281250e+05
    8.4116021171e-03    1.1404980469e+05
    8.4314141423e-03    1.1392372656e+05
    8.4512168542e-03    1.1379502344e+05
    8.4710381925e-03    1.1366566406e+05
    8.4908353165e-03    1.1352369531e+05
    8.5106678307e-03    1.1338105469e+05
    8.5304882377e-03    1.1323150000e+05
    8.5503393784e-03    1.1308814844e+05
    8.5699046031e-03    1.1294833594e+05
    8.5892248899e-03    1.1282339844e+05
    8.6083402857e-03    1.1270080469e+05
    8.6272666231e-03    1.1259617969e+05
    8.6460309103e-03    1.1250586719e+05
    8.6646731943e-03    1.1242242969e+05
    8.6832325906e-03    1.1235019531e+05
    8.7017398328e-03    1.1228246094e+05
    8.7202098221e-03    1.1222493750e+05
    8.7386453524e-03    1.1218117969e+05
    8.7570473552e-03    1.1213175000e+05
    8.7753897533e-03    1.1209278906e+05
    8.7936492637e-03    1.1205036719e+05
    8.8118780404e-03    1.1201652344e+05
    8.8300397620e-03    1.1197842969e+05
    8.8481390849e-03    1.1193855469e+05
    8.8662039489e-03    1.1189274219e+05
    8.8842641562e-03    1.1183586719e+05
    8.9023411274e-03    1.1177319531e+05
    8.9204348624e-03    1.1170642969e+05
    8.9385388419e-03    1.1163500781e+05
    8.9566456154e-03    1.1156024219e+05
    8.9747514576e-03    1.1148855469e+05
    8.9928600937e-03    1.1142019531e+05
    9.0109808370e-03    1.1135094531e+05
    9.0291155502e-03    1.1128585156e+05
    9.0472688898e-03    1.1122577344e+05
    9.0654399246e-03    1.1116622656e+05
    9.0836230665e-03    1.1110380469e+05
    9.1018192470e-03    1.1104428906e+05
    9.1200266033e-03    1.1098510156e+05
    9.1382460669e-03    1.1093072656e+05
    9.1564757749e-03    1.1087822656e+05
    9.1747231781e-03    1.1082696094e+05
    9.1929892078e-03    1.1077299219e+05
    9.2112747952e-03    1.1071647656e+05
    9.2295790091e-03    1.1065150781e+05
    9.2479009181e-03    1.1058753906e+05
    9.2662386596e-03    1.1051943750e+05
    9.2845931649e-03    1.1045137500e+05
    9.3029672280e-03    1.1038527344e+05
    9.3213599175e-03    1.1032125000e+05
    9.3397712335e-03    1.1026485156e+05
    9.3582011759e-03    1.1021007031e+05
    9.3766497448e-03    1.1015665625e+05
    9.3951150775e-03    1.1011200781e+05
    9.4135999680e-03    1.1007328906e+05
    9.4321016222e-03    1.1003755469e+05
    9.4506228343e-03    1.1001678906e+05
    9.4691645354e-03    1.1000141406e+05
    9.4877239317e-03    1.0999027344e+05
    9.5063010231e-03    1.0998439844e+05
    9.5248948783e-03    1.0998431250e+05
    9.5435054973e-03    1.0998347656e+05
    9.5621328801e-03    1.0997896094e+05
    9.5807760954e-03    1.0996886719e+05
    9.5994332805e-03    1.0995721094e+05
    9.6181081608e-03    1.0993685156e+05
    9.6367979422e-03    1.0991096094e+05
    9.6555035561e-03    1.0987389844e+05
    9.6742231399e-03    1.0982989844e+05
    9.6929576248e-03    1.0977025781e+05
    9.7117051482e-03    1.0969775000e+05
    9.7304685041e-03    1.0960696094e+05
    9.7492448986e-03    1.0950108594e+05
    9.7680361941e-03    1.0938446094e+05
    9.7868405282e-03    1.0925253906e+05
    9.8056588322e-03    1.0911450000e+05
    9.8244920373e-03    1.0895853125e+05
    9.8433364183e-03    1.0880333594e+05
    9.8621929064e-03    1.0864082031e+05
    9.8810633644e-03    1.0848031250e+05
    9.8999459296e-03    1.0831308594e+05
    9.9188406020e-03    1.0814830469e+05
    9.9377483130e-03    1.0799047656e+05
    9.9566690624e-03    1.0783835156e+05
    9.9756028503e-03    1.0769765625e+05
    9.9945487455e-03    1.0756038281e+05
    1.0013507679e-02    1.0743921094e+05
    1.0032479651e-02    1.0731539844e+05
    1.0051463731e-02    1.0720746875e+05
    1.0070459917e-02    1.0710731250e+05
    1.0089469142e-02    1.0700911719e+05
    1.0108492337e-02    1.0692028906e+05
    1.0127528571e-02    1.0684437500e+05
    1.0146577843e-02    1.0677925000e+05
    1.0165639222e-02    1.0672503906e+05
    1.0184712708e-02    1.0667885156e+05
    1.0203798302e-02    1.0664228125e+05
    1.0222896002e-02    1.0661263281e+05
    1.0242006741e-02    1.0658935156e+05
    1.0261129588e-02    1.0656932031e+05
    1.0280264542e-02    1.0655747656e+05
    1.0299413465e-02    1.0654546875e+05
    1.0318575427e-02    1.0653214844e+05
    1.0337748565e-02    1.0652163281e+05
    1.0356934741e-02    1.0651457031e+05
    1.0376133956e-02    1.0650749219e+05
    1.0395346209e-02    1.0648822656e+05
    1.0414571501e-02    1.0647724219e+05
    1.0433809832e-02    1.0645667969e+05
    1.0453061201e-02    1.0643050000e+05
    1.0472324677e-02    1.0640513281e+05
    1.0491601191e-02    1.0637803906e+05
    1.0510892607e-02    1.0634763281e+05
    1.0530196130e-02    1.0630118750e+05
    1.0549513623e-02    1.0626107031e+05
    1.0568842292e-02    1.0621360156e+05
    1.0588183999e-02    1.0616483594e+05
    1.0607538745e-02    1.0610803906e+05
    1.0626907460e-02    1.0605482031e+05
    1.0646289214e-02    1.0599514844e+05
    1.0665684007e-02    1.0593186719e+05
    1.0685092770e-02    1.0586534375e+05
    1.0704516433e-02    1.0579089844e+05
    1.0723951273e-02    1.0571655469e+05
    1.0743400082e-02    1.0564059375e+05
    1.0762862861e-02    1.0555818750e+05
    1.0782338679e-02    1.0547039844e+05
    1.0801829398e-02    1.0538087500e+05
    1.0821334086e-02    1.0528831250e+05
    1.0840852745e-02    1.0519447656e+05
    1.0860386305e-02    1.0509853906e+05
    1.0879932903e-02    1.0501242969e+05
    1.0899493471e-02    1.0493021094e+05
    1.0919069871e-02    1.0485552344e+05
    1.0938662104e-02    1.0480414844e+05
    1.0958270170e-02    1.0475883594e+05
    1.0977892205e-02    1.0471575000e+05
    1.0997531936e-02    1.0468525781e+05
    1.1017187499e-02    1.0466568750e+05
    1.1036860757e-02    1.0463896094e+05
    1.1056551710e-02    1.0461986719e+05
    1.1076259427e-02    1.0459678906e+05
    1.1095987633e-02    1.0457005469e+05
    1.1115733534e-02    1.0453991406e+05
    1.1135498993e-02    1.0450068750e+05
    1.1155283079e-02    1.0445421094e+05
    1.1175086722e-02    1.0439407031e+05
    1.1194912717e-02    1.0433314844e+05
    1.1214758269e-02    1.0426509375e+05
    1.1234625243e-02    1.0419803906e+05
    1.1254511774e-02    1.0413137500e+05
    1.1274418794e-02    1.0406599219e+05
    1.1294347234e-02    1.0400547656e+05
    1.1314296164e-02    1.0394277344e+05
    1.1334266514e-02    1.0388477344e+05
    1.1354257353e-02    1.0382610156e+05
    1.1374268681e-02    1.0376641406e+05
    1.1394302361e-02    1.0370707031e+05
    1.1414355598e-02    1.0364894531e+05
    1.1434430256e-02    1.0358711719e+05
    1.1454525404e-02    1.0353246875e+05
    1.1474640109e-02    1.0347647656e+05
    1.1494777165e-02    1.0341667969e+05
    1.1514934711e-02    1.0335752344e+05
    1.1535113677e-02    1.0330722656e+05
    1.1555313133e-02    1.0324992969e+05
    1.1575534008e-02    1.0321163281e+05
    1.1595774442e-02    1.0316633594e+05
    1.1616035365e-02    1.0313567969e+05
    1.1636316776e-02    1.0310809375e+05
    1.1656619608e-02    1.0308182031e+05
    1.1676942930e-02    1.0305703906e+05
    1.1697287671e-02    1.0302789844e+05
    1.1717652902e-02    1.0299575781e+05
    1.1738038622e-02    1.0296721094e+05
    1.1758443899e-02    1.0294078125e+05
    1.1778870597e-02    1.0290703125e+05
    1.1799318716e-02    1.0287819531e+05
    1.1819788255e-02    1.0283506250e+05
    1.1840280145e-02    1.0279669531e+05
    1.1860790662e-02    1.0276937500e+05
    1.1881321669e-02    1.0273421875e+05
    1.1901874095e-02    1.0269760156e+05
    1.1922447011e-02    1.0266643750e+05
    1.1943042278e-02    1.0264130469e+05
    1.1963658035e-02    1.0261210156e+05
    1.1984295212e-02    1.0258486719e+05
    1.2004952878e-02    1.0256324219e+05
    1.2025631964e-02    1.0253360156e+05
    1.2046331540e-02    1.0251192969e+05
    1.2067052536e-02    1.0249341406e+05
    1.2087795883e-02    1.0249514844e+05
    1.2108558789e-02    1.0251674219e+05
    1.2129344046e-02    1.0257253125e+05
    1.2150149792e-02    1.0266615625e+05
    1.2170976959e-02    1.0281678906e+05
    1.2191825546e-02    1.0303828906e+05
    1.2212695554e-02    1.0334464844e+05
    1.2233586982e-02    1.0375314844e+05
    1.2254500762e-02    1.0430382031e+05
    1.2275436893e-02    1.0500517969e+05
    1.2296394445e-02    1.0586371094e+05
    1.2317374349e-02    1.0686714844e+05
    1.2338375673e-02    1.0797789844e+05
    1.2359398417e-02    1.0913875000e+05
    1.2380442582e-02    1.1027216406e+05
    1.2401508167e-02    1.1129400781e+05
    1.2422595173e-02    1.1212939844e+05
    1.2443703599e-02    1.1271032031e+05
    1.2464834377e-02    1.1301358594e+05
    1.2485986575e-02    1.1303502344e+05
    1.2507158332e-02    1.1280465625e+05
    1.2528351508e-02    1.1236147656e+05
    1.2549565174e-02    1.1175791406e+05
    1.2570801191e-02    1.1105972656e+05
    1.2592058629e-02    1.1031755469e+05
    1.2613337487e-02    1.0958897656e+05
    1.2634636834e-02    1.0892092969e+05
    1.2655957602e-02    1.0834046094e+05
    1.2677297927e-02    1.0786837500e+05
    1.2698660605e-02    1.0748832031e+05
    1.2720043771e-02    1.0717618750e+05
    1.2741449289e-02    1.0688210156e+05
    1.2762876227e-02    1.0657827344e+05
    1.2784325518e-02    1.0623196094e+05
    1.2805794366e-02    1.0582647656e+05
    1.2827285565e-02    1.0535737500e+05
    1.2848797254e-02    1.0484246875e+05
    1.2870330364e-02    1.0429197656e+05
    1.2891885825e-02    1.0373402344e+05
    1.2913462706e-02    1.0318833594e+05
    1.2935061008e-02    1.0268002344e+05
    1.2956679799e-02    1.0222627344e+05
    1.2978320010e-02    1.0183635156e+05
    1.2999981642e-02    1.0150691406e+05
    1.3021663763e-02    1.0123615625e+05
    1.3043368235e-02    1.0100567969e+05
    1.3065092266e-02    1.0081068750e+05
    1.3086837716e-02    1.0063574219e+05
    1.3108605519e-02    1.0047703906e+05
    1.3130392879e-02    1.0033172656e+05
    1.3152201660e-02    1.0019325781e+05
    1.3174032792e-02    1.0007146875e+05
    1.3195885345e-02    9.9954148438e+04
    1.3217759319e-02    9.9851476562e+04
    1.3239653781e-02    9.9761398438e+04
    1.3261569664e-02    9.9695460938e+04
    1.3283506967e-02    9.9644656250e+04
    1.3305463828e-02    9.9607101562e+04
    1.3327440247e-02    9.9580960938e+04
    1.3349435292e-02    9.9561523438e+04
    1.3371448033e-02    9.9545289062e+04
    1.3393475674e-02    9.9524656250e+04
    1.3415516354e-02    9.9498039062e+04
    1.3437564485e-02    9.9464851562e+04
    1.3459613547e-02    9.9428914062e+04
    1.3481658883e-02    9.9392898438e+04
    1.3503690250e-02    9.9362851562e+04
    1.3525702059e-02    9.9349843750e+04
    1.3547683135e-02    9.9374664062e+04
    1.3569628820e-02    9.9431242188e+04
    1.3591531664e-02    9.9530007812e+04
    1.3613392599e-02    9.9656750000e+04
    1.3635210693e-02    9.9801070312e+04
    1.3656994328e-02    9.9954429688e+04
    1.3678749092e-02    1.0010180469e+05
    1.3700488023e-02    1.0023566406e+05
    1.3722228818e-02    1.0034989844e+05
    1.3743981719e-02    1.0044158594e+05
    1.3765762560e-02    1.0050489844e+05
    1.3787578791e-02    1.0055128906e+05
    1.3809437864e-02    1.0058827344e+05
    1.3831341639e-02    1.0061074219e+05
    1.3853288256e-02    1.0064071094e+05
    1.3875273056e-02    1.0067460156e+05
    1.3897285797e-02    1.0071382031e+05
    1.3919321820e-02    1.0076607031e+05
    1.3941374607e-02    1.0081750000e+05
    1.3963440433e-02    1.0086957031e+05
    1.3985517435e-02    1.0092010156e+05
    1.4007603750e-02    1.0096541406e+05
    1.4029704034e-02    1.0100496094e+05
    1.4051820152e-02    1.0103738281e+05
    1.4073957689e-02    1.0105809375e+05
    1.4096121304e-02    1.0107406250e+05
    1.4118315652e-02    1.0107949219e+05
    1.4140545391e-02    1.0109062500e+05
    1.4162814245e-02    1.0109922656e+05
    1.4185124077e-02    1.0110508594e+05
    1.4207473956e-02    1.0111900781e+05
    1.4229862019e-02    1.0113053906e+05
    1.4252286404e-02    1.0114325781e+05
    1.4274741523e-02    1.0115297656e+05
    1.4297228307e-02    1.0116877344e+05
    1.4319745824e-02    1.0116897656e+05
    1.4342290349e-02    1.0117737500e+05
    1.4364863746e-02    1.0118277344e+05
    1.4387467876e-02    1.0118377344e+05
    1.4410103671e-02    1.0118353906e+05
    1.4432771131e-02    1.0117886719e+05
    1.4455472119e-02    1.0117496094e+05
    1.4478209428e-02    1.0117335156e+05
    1.4500979334e-02    1.0116546094e+05
    1.4523783699e-02    1.0116425000e+05
    1.4546621591e-02    1.0115878906e+05
    1.4569494873e-02    1.0114928906e+05
    1.4592399821e-02    1.0114468750e+05
    1.4615339227e-02    1.0112835156e+05
    1.4638305642e-02    1.0111577344e+05
    1.4661304653e-02    1.0109639844e+05
    1.4684336260e-02    1.0108260156e+05
    1.4707398601e-02    1.0105764844e+05
    1.4730494469e-02    1.0103980469e+05
    1.4753622934e-02    1.0101409375e+05
    1.4776783995e-02    1.0098665625e+05
    1.4799979515e-02    1.0096467969e+05
    1.4823205769e-02    1.0094371094e+05
    1.4846466482e-02    1.0091915625e+05
    1.4869757928e-02    1.0088522656e+05
    1.4893081971e-02    1.0084333594e+05
    1.4916437678e-02    1.0080737500e+05
    1.4939822257e-02    1.0076447656e+05
    1.4963239431e-02    1.0071456250e+05
    1.4986685477e-02    1.0065530469e+05
    1.5010161325e-02    1.0059143750e+05
    1.5033668838e-02    1.0051652344e+05
    1.5057205223e-02    1.0043682031e+05
    1.5080772340e-02    1.0034684375e+05
    1.5104367398e-02    1.0025463281e+05
    1.5127992257e-02    1.0015641406e+05
    1.5151646920e-02    1.0006150781e+05
    1.5175330453e-02    9.9967039062e+04
    1.5199041925e-02    9.9869585938e+04
    1.5222782269e-02    9.9769351562e+04
    1.5246548690e-02    9.9677531250e+04
    1.5270343982e-02    9.9589710938e+04
    1.5294168144e-02    9.9515093750e+04
    1.5318016522e-02    9.9448500000e+04
    1.5341891907e-02    9.9392398438e+04
    1.5365792438e-02    9.9346125000e+04
    1.5389721841e-02    9.9310695312e+04
    1.5413676389e-02    9.9287093750e+04
    1.5437657945e-02    9.9274898438e+04
    1.5461664647e-02    9.9265726562e+04
    1.5485695563e-02    9.9279960938e+04
    1.5509752557e-02    9.9304289062e+04
    1.5533835627e-02    9.9335039062e+04
    1.5557944775e-02    9.9377164062e+04
    1.5582079068e-02    9.9424007812e+04
    1.5606240369e-02    9.9473750000e+04
    1.5630424023e-02    9.9518867188e+04
    1.5654634684e-02    9.9567085938e+04
    1.5678871423e-02    9.9618976562e+04
    1.5703132376e-02    9.9677789062e+04
    1.5727419406e-02    9.9733945312e+04
    1.5751728788e-02    9.9788195312e+04
    1.5776060522e-02    9.9845906250e+04
    1.5800418332e-02    9.9906218750e+04
    1.5824800357e-02    9.9967617188e+04
    1.5849204734e-02    1.0003031250e+05
    1.5873633325e-02    1.0009117969e+05
    1.5898084268e-02    1.0014672656e+05
    1.5922557563e-02    1.0019862500e+05
    1.5947058797e-02    1.0024996875e+05
    1.5971582383e-02    1.0028852344e+05
    1.5996130183e-02    1.0031460156e+05
    1.6020702198e-02    1.0033528906e+05
    1.6045298427e-02    1.0033921094e+05
    1.6069920734e-02    1.0033428906e+05
    1.6094569117e-02    1.0031747656e+05
    1.6119243577e-02    1.0029362500e+05
    1.6143942252e-02    1.0026639844e+05
    1.6168667004e-02    1.0024281250e+05
    1.6193419695e-02    1.0022160156e+05
    1.6218200326e-02    1.0021016406e+05
    1.6243007034e-02    1.0021096094e+05
    1.6267839819e-02    1.0022222656e+05
    1.6292702407e-02    1.0024946094e+05
    1.6317596659e-02    1.0029264844e+05
    1.6342513263e-02    1.0034153906e+05
    1.6367461532e-02    1.0040167969e+05
    1.6392435879e-02    1.0047941406e+05
    1.6417443752e-02    1.0056328125e+05
    1.6442479566e-02    1.0064747656e+05
    1.6467543319e-02    1.0073080469e+05
    1.6492636874e-02    1.0081200000e+05
    1.6517756507e-02    1.0089533594e+05
    1.6542907804e-02    1.0096803906e+05
    1.6568088904e-02    1.0104075781e+05
    1.6593271866e-02    1.0110797656e+05
    1.6618426889e-02    1.0116762500e+05
    1.6643559560e-02    1.0122213281e+05
    1.6668669879e-02    1.0127152344e+05
    1.6693757847e-02    1.0131693750e+05
    1.6718825325e-02    1.0135360156e+05
    1.6743874177e-02    1.0138575781e+05
    1.6768900678e-02    1.0141460156e+05
    1.6793908551e-02    1.0143885156e+05
    1.6818899661e-02    1.0146459375e+05
    1.6843874007e-02    1.0148634375e+05
    1.6868829727e-02    1.0150478906e+05
    1.6893770546e-02    1.0153122656e+05
    1.6918692738e-02    1.0155066406e+05
    1.6943598166e-02    1.0157546875e+05
    1.6968490556e-02    1.0160257031e+05
    1.6993366182e-02    1.0163391406e+05
    1.7018226907e-02    1.0166643750e+05
    1.7043072730e-02    1.0170647656e+05
    1.7067901790e-02    1.0174780469e+05
    1.7092714086e-02    1.0178918750e+05
    1.7117511481e-02    1.0183646875e+05
    1.7142292112e-02    1.0187527344e+05
    1.7167057842e-02    1.0192010156e+05
    1.7191808671e-02    1.0196008594e+05
    1.7216544598e-02    1.0199486719e+05
    1.7241263762e-02    1.0202358594e+05
    1.7265968025e-02    1.0205103906e+05
    1.7290659249e-02    1.0207250781e+05
    1.7315333709e-02    1.0209289844e+05
    1.7339993268e-02    1.0210709375e+05
    1.7364639789e-02    1.0212303125e+05
    1.7389267683e-02    1.0213766406e+05
    1.7413880676e-02    1.0214458594e+05
    1.7438478768e-02    1.0214389844e+05
    1.7463061959e-02    1.0214464844e+05
    1.7487626523e-02    1.0214662500e+05
    1.7512176186e-02    1.0214285156e+05
    1.7536709085e-02    1.0214103125e+05
    1.7561223358e-02    1.0213652344e+05
    1.7585720867e-02    1.0213778906e+05
    1.7610201612e-02    1.0213028125e+05
    1.7634663731e-02    1.0213096875e+05
    1.7659107223e-02    1.0212672656e+05
    1.7683532089e-02    1.0212400781e+05
    1.7707940191e-02    1.0212314844e+05
    1.7732329667e-02    1.0213382031e+05
    1.7756698653e-02    1.0213765625e+05
    1.7781050876e-02    1.0214892969e+05
    1.7805384472e-02    1.0216427344e+05
    1.7829699442e-02    1.0218372656e+05
    1.7853999510e-02    1.0220502344e+05
    1.7878280953e-02    1.0222605469e+05
    1.7902545631e-02    1.0224959375e+05
    1.7926793545e-02    1.0227052344e+05
    1.7951028422e-02    1.0229616406e+05
    1.7975246534e-02    1.0232285156e+05
    1.7999447882e-02    1.0235364844e+05
    1.8023636192e-02    1.0239356250e+05
    1.8047811463e-02    1.0243521094e+05
    1.8071975559e-02    1.0248703906e+05
    1.8096126616e-02    1.0254867969e+05
    1.8120266497e-02    1.0262927344e+05
    1.8144397065e-02    1.0271706250e+05
    1.8168520182e-02    1.0282100000e+05
    1.8192630261e-02    1.0293228125e+05
    1.8216732889e-02    1.0305110156e+05
    1.8240824342e-02    1.0316775781e+05
    1.8264908344e-02    1.0328072656e+05
    1.8288983032e-02    1.0337746094e+05
    1.8313048407e-02    1.0345307031e+05
    1.8337102607e-02    1.0349821094e+05
    1.8361147493e-02    1.0351452344e+05
    1.8385183066e-02    1.0350075781e+05
    1.8409207463e-02    1.0344800781e+05
    1.8433224410e-02    1.0335721094e+05
    1.8457230181e-02    1.0322210156e+05
    1.8481226638e-02    1.0305605469e+05
    1.8505210057e-02    1.0283975000e+05
    1.8529184163e-02    1.0259894531e+05
    1.8553148955e-02    1.0233734375e+05
    1.8577100709e-02    1.0206735156e+05
    1.8601041287e-02    1.0180090625e+05
    1.8624972552e-02    1.0155160156e+05
    1.8648892641e-02    1.0131428906e+05
    1.8672801554e-02    1.0110641406e+05
    1.8696699291e-02    1.0092664844e+05
    1.8720587716e-02    1.0078625781e+05
    1.8744463101e-02    1.0068097656e+05
    1.8768329173e-02    1.0060803906e+05
    1.8792184070e-02    1.0055800000e+05
    1.8816027790e-02    1.0052419531e+05
    1.8839860335e-02    1.0051202344e+05
    1.8863683566e-02    1.0051411719e+05
    1.8887493759e-02    1.0052511719e+05
    1.8911294639e-02    1.0055100781e+05
    1.8935086206e-02    1.0058890625e+05
    1.8958866596e-02    1.0063250781e+05
    1.8982635811e-02    1.0068750000e+05
    1.9006397575e-02    1.0075002344e+05
    1.9030146301e-02    1.0080858594e+05
    1.9053885713e-02    1.0087366406e+05
    1.9077615812e-02    1.0093787500e+05
    1.9101334736e-02    1.0100796094e+05
    1.9125042483e-02    1.0107517969e+05
    1.9148740917e-02    1.0114049219e+05
    1.9172428176e-02    1.0120294531e+05
    1.9196104258e-02    1.0125081250e+05
    1.9219771028e-02    1.0130707031e+05
    1.9243424758e-02    1.0136435156e+05
    1.9267069176e-02    1.0141971094e+05
    1.9290700555e-02    1.0148291406e+05
    1.9314322621e-02    1.0154778906e+05
    1.9337931648e-02    1.0160496094e+05
    1.9361529499e-02    1.0166797656e+05
    1.9385114312e-02    1.0173407031e+05
    1.9408687949e-02    1.0180157031e+05
    1.9432250410e-02    1.0187068750e+05
    1.9455801696e-02    1.0193983594e+05
    1.9479339942e-02    1.0200128125e+05
    1.9502865151e-02    1.0205427344e+05
    1.9526379183e-02    1.0210786719e+05
    1.9549878314e-02    1.0215306250e+05
    1.9573366269e-02    1.0220218750e+05
    1.9596841186e-02    1.0224377344e+05
    1.9620303065e-02    1.0227560156e+05
    1.9643751904e-02    1.0231242969e+05
    1.9667187706e-02    1.0234880469e+05
    1.9690606743e-02    1.0238450000e+05
    1.9714014605e-02    1.0240721875e+05
    1.9737409428e-02    1.0243749219e+05
    1.9760791212e-02    1.0245646875e+05
    1.9784159958e-02    1.0247340625e+05
    1.9807513803e-02    1.0248506250e+05
    1.9830854610e-02    1.0248808594e+05
    1.9854182377e-02    1.0249405469e+05
    1.9877497107e-02    1.0249396875e+05
    1.9900798798e-02    1.0249602344e+05
    1.9924087450e-02    1.0248453125e+05
    1.9947361201e-02    1.0247416406e+05
    1.9970623776e-02    1.0246005469e+05
    1.9993871450e-02    1.0245011719e+05
    2.0017107949e-02    1.0243627344e+05
    2.0040329546e-02    1.0242203906e+05
    2.0063538104e-02    1.0240328906e+05
    2.0086731762e-02    1.0238824219e+05
    2.0109914243e-02    1.0236935156e+05
    2.0133081824e-02    1.0234833594e+05
    2.0156236365e-02    1.0232411719e+05
    2.0179376006e-02    1.0231155469e+05
    2.0202504471e-02    1.0229972656e+05
    2.0225618035e-02    1.0228360156e+05
    2.0248720422e-02    1.0226566406e+05
    2.0271807909e-02    1.0224796094e+05
    2.0294882357e-02    1.0223457031e+05
    2.0317947492e-02    1.0222158594e+05
    2.0340997726e-02    1.0221207031e+05
    2.0364036784e-02    1.0220321875e+05
    2.0387060940e-02    1.0218844531e+05
    2.0410073921e-02    1.0217361719e+05
    2.0433073863e-02    1.0216346094e+05
    2.0456060767e-02    1.0214459375e+05
    2.0479036495e-02    1.0213391406e+05
    2.0501999184e-02    1.0212982031e+05
    2.0524948835e-02    1.0212150000e+05
    2.0547885448e-02    1.0210728906e+05
    2.0570809022e-02    1.0209066406e+05
    2.0593719557e-02    1.0207921094e+05
    2.0616617054e-02    1.0205681250e+05
    2.0639499649e-02    1.0204264844e+05
    2.0662369207e-02    1.0202907031e+05
    2.0685223863e-02    1.0201578906e+05
    2.0708063617e-02    1.0200235156e+05
    2.0730890334e-02    1.0198621094e+05
    2.0753700286e-02    1.0196990625e+05
    2.0776495337e-02    1.0194910156e+05
    2.0799275488e-02    1.0192324219e+05
    2.0822042599e-02    1.0190744531e+05
    2.0844791085e-02    1.0189205469e+05
    2.0867524669e-02    1.0187687500e+05
    2.0890241489e-02    1.0186340625e+05
    2.0912945271e-02    1.0184983594e+05
    2.0935632288e-02    1.0183590625e+05
    2.0958306268e-02    1.0182102344e+05
    2.0980965346e-02    1.0181525000e+05
    2.1003607661e-02    1.0180433594e+05
    2.1026238799e-02    1.0179183594e+05
    2.1048855036e-02    1.0178980469e+05
    2.1071458235e-02    1.0177997656e+05
    2.1094048396e-02    1.0177600781e+05
    2.1116625518e-02    1.0177224219e+05
    2.1139191464e-02    1.0177421875e+05
    2.1161744371e-02    1.0177671094e+05
    2.1184286103e-02    1.0177016406e+05
    2.1206818521e-02    1.0177353906e+05
    2.1229337901e-02    1.0176833594e+05
    2.1251846105e-02    1.0177213281e+05
    2.1274344996e-02    1.0176955469e+05
    2.1296832711e-02    1.0176863281e+05
    2.1319312975e-02    1.0177227344e+05
    2.1341778338e-02    1.0177133594e+05
    2.1364232525e-02    1.0177344531e+05
    2.1386675537e-02    1.0177005469e+05
    2.1409107372e-02    1.0176619531e+05
    2.1431528032e-02    1.0176353906e+05
    2.1453931928e-02    1.0176439844e+05
    2.1476324648e-02    1.0176174219e+05
    2.1498700604e-02    1.0175743750e+05
    2.1521063522e-02    1.0176135156e+05
    2.1543409675e-02    1.0175846094e+05
    2.1565740928e-02    1.0174632031e+05
    2.1588053554e-02    1.0174384375e+05
    2.1610351279e-02    1.0174025781e+05
    2.1632634103e-02    1.0173628906e+05
    2.1654898301e-02    1.0173884375e+05
    2.1677147597e-02    1.0173414844e+05
    2.1699378267e-02    1.0173043750e+05
    2.1721594036e-02    1.0172759375e+05
    2.1743793041e-02    1.0172636719e+05
    2.1765975282e-02    1.0171866406e+05
    2.1788140759e-02    1.0171603906e+05
    2.1810289472e-02    1.0171175781e+05
    2.1832419559e-02    1.0171503125e+05
    2.1854531020e-02    1.0171261719e+05
    2.1876627579e-02    1.0170997656e+05
    2.1898705512e-02    1.0169733594e+05
    2.1920768544e-02    1.0169366406e+05
    2.1942811087e-02    1.0169121094e+05
    2.1964838728e-02    1.0168883594e+05
    2.1986849606e-02    1.0168552344e+05
    2.2008845583e-02    1.0168750781e+05
    2.2030822933e-02    1.0169028906e+05
    2.2052785382e-02    1.0168327344e+05
    2.2074732929e-02    1.0167600781e+05
    2.2096665576e-02    1.0167336719e+05
    2.2118583322e-02    1.0167714844e+05
    2.2140489891e-02    1.0167753125e+05
    2.2162377834e-02    1.0166588281e+05
    2.2184254602e-02    1.0166411719e+05
    2.2206118330e-02    1.0167119531e+05
    2.2227969021e-02    1.0166947656e+05
    2.2249806672e-02    1.0166803125e+05
    2.2271629423e-02    1.0167222656e+05
    2.2293440998e-02    1.0167518750e+05
    2.2315241396e-02    1.0167918750e+05
    2.2337028757e-02    1.0168007031e+05
    2.2358803079e-02    1.0168566406e+05
    2.2380566224e-02    1.0168172656e+05
    2.2402318195e-02    1.0168162500e+05
    2.2424057126e-02    1.0168132031e+05
    2.2445784882e-02    1.0168192969e+05
    2.2467501462e-02    1.0167209375e+05
    2.2489206865e-02    1.0167777344e+05
    2.2510899231e-02    1.0168000781e+05
    2.2532582283e-02    1.0166828906e+05
    2.2554252297e-02    1.0166703906e+05
    2.2575911134e-02    1.0166363281e+05
    2.2597560659e-02    1.0165678906e+05
    2.2619199008e-02    1.0164925000e+05
    2.2640828043e-02    1.0164615625e+05
    2.2662445903e-02    1.0164247656e+05
    2.2684050724e-02    1.0163749219e+05
    2.2705646232e-02    1.0162966406e+05
    2.2727232426e-02    1.0162313281e+05
    2.2748809308e-02    1.0161622656e+05
    2.2770375013e-02    1.0161216406e+05
    2.2791929543e-02    1.0160722656e+05
    2.2813472897e-02    1.0160814844e+05
    2.2835006937e-02    1.0161058594e+05
    2.2856531665e-02    1.0161208594e+05
    2.2878047079e-02    1.0160438281e+05
    2.2899549454e-02    1.0160308594e+05
    2.2921044379e-02    1.0160969531e+05
    2.2942528129e-02    1.0160947656e+05
    2.2964000702e-02    1.0161053125e+05
    2.2985465825e-02    1.0162021875e+05
    2.3006917909e-02    1.0162581250e+05
    2.3028360680e-02    1.0163096094e+05
    2.3049792275e-02    1.0163221094e+05
    2.3071214557e-02    1.0163375781e+05
    2.3092625663e-02    1.0163616406e+05
    2.3114029318e-02    1.0164703125e+05
    2.3135419935e-02    1.0164896875e+05
    2.3156799376e-02    1.0164597656e+05
    2.3178169504e-02    1.0164253906e+05
    2.3199530318e-02    1.0164278906e+05
    2.3220879957e-02    1.0164272656e+05
    2.3242218420e-02    1.0163716406e+05
    2.3263547570e-02    1.0163152344e+05
    2.3284865543e-02    1.0162816406e+05
    2.3306174204e-02    1.0161485156e+05
    2.3327469826e-02    1.0160597656e+05
    2.3348756135e-02    1.0159699219e+05
    2.3370031267e-02    1.0158858594e+05
    2.3391297087e-02    1.0157964844e+05
    2.3412553594e-02    1.0156664844e+05
    2.3433798924e-02    1.0155443750e+05
    2.3455033079e-02    1.0154617969e+05
    2.3476256058e-02    1.0153406250e+05
    2.3497469723e-02    1.0152453906e+05
    2.3518672213e-02    1.0151587500e+05
    2.3539865389e-02    1.0150878125e+05
    2.3561049253e-02    1.0149996094e+05
    2.3582221940e-02    1.0149162500e+05
    2.3603385314e-02    1.0148622656e+05
    2.3624535650e-02    1.0147940625e+05
    2.3645676672e-02    1.0148103906e+05
    2.3666808382e-02    1.0147775781e+05
    2.3687927052e-02    1.0148209375e+05
    2.3709038273e-02    1.0148536719e+05
    2.3730138317e-02    1.0149193750e+05
    2.3751227185e-02    1.0150352344e+05
    2.3772306740e-02    1.0152291406e+05
    2.3793375120e-02    1.0153950000e+05
    2.3814432323e-02    1.0155889844e+05
    2.3835480213e-02    1.0158471094e+05
    2.3856516927e-02    1.0160727344e+05
    2.3877544329e-02    1.0163189844e+05
    2.3898560554e-02    1.0166567969e+05
    2.3919565603e-02    1.0169946094e+05
    2.3940561339e-02    1.0173435156e+05
    2.3961545900e-02    1.0177700781e+05
    2.3982519284e-02    1.0181171875e+05
    2.4003483355e-02    1.0184671094e+05
    2.4024436250e-02    1.0188364844e+05
    2.4045377970e-02    1.0191593750e+05
    2.4066310376e-02    1.0194647656e+05
    2.4087233469e-02    1.0198294531e+05
    2.4108145386e-02    1.0201585156e+05
    2.4129044265e-02    1.0204360156e+05
    2.4149935693e-02    1.0206374219e+05
    2.4170814082e-02    1.0208303906e+05
    2.4191683158e-02    1.0210168750e+05
    2.4212542921e-02    1.0211585156e+05
    2.4233391508e-02    1.0212833594e+05
    2.4254228920e-02    1.0213828906e+05
    2.4275057018e-02    1.0214134375e+05
    2.4295873940e-02    1.0213766406e+05
    2.4316681549e-02    1.0213628125e+05
    2.4337477982e-02    1.0212863281e+05
    2.4358265102e-02    1.0211842969e+05
    2.4379042909e-02    1.0209921875e+05
    2.4399809539e-02    1.0207928906e+05
    2.4420566857e-02    1.0205127344e+05
    2.4441312999e-02    1.0202422656e+05
    2.4462047964e-02    1.0198585156e+05
    2.4482775480e-02    1.0194869531e+05
    2.4503491819e-02    1.0190760156e+05
    2.4524198845e-02    1.0186516406e+05
    2.4544894695e-02    1.0182465625e+05
    2.4565581232e-02    1.0178902344e+05
    2.4586258456e-02    1.0175217969e+05
    2.4606924504e-02    1.0172321094e+05
    2.4627581239e-02    1.0169794531e+05
    2.4648228660e-02    1.0167903125e+05
    2.4668866768e-02    1.0167067969e+05
    2.4689495564e-02    1.0166824219e+05
    2.4710113183e-02    1.0167803906e+05
    2.4730721489e-02    1.0169116406e+05
    2.4751318619e-02    1.0170734375e+05
    2.4771906435e-02    1.0172603906e+05
    2.4792486802e-02    1.0175539844e+05
    2.4813055992e-02    1.0178341406e+05
    2.4833614007e-02    1.0180864844e+05
    2.4854162708e-02    1.0184110156e+05
    2.4874702096e-02    1.0186425000e+05
    2.4895232171e-02    1.0188219531e+05
    2.4915752932e-02    1.0191182031e+05
    2.4936262518e-02    1.0193166406e+05
    2.4956764653e-02    1.0195225781e+05
    2.4977253750e-02    1.0196928125e+05
    2.4997735396e-02    1.0198691406e+05
    2.5018205866e-02    1.0200253906e+05
    2.5038668886e-02    1.0201950781e+05
    2.5059120730e-02    1.0202969531e+05
    2.5079563260e-02    1.0204386719e+05
    2.5099996477e-02    1.0205666406e+05
    2.5120420381e-02    1.0207065625e+05
    2.5140833110e-02    1.0208296875e+05
    2.5161236525e-02    1.0208506250e+05
    2.5181630626e-02    1.0209777344e+05
    2.5202017277e-02    1.0210996094e+05
    2.5222390890e-02    1.0212099219e+05
    2.5242757052e-02    1.0213091406e+05
    2.5263112038e-02    1.0213710156e+05
    2.5283459574e-02    1.0214564844e+05
    2.5303795934e-02    1.0215307031e+05
    2.5324124843e-02    1.0215705469e+05
    2.5344440714e-02    1.0215702344e+05
    2.5364749134e-02    1.0216310156e+05
    2.5385048240e-02    1.0216496094e+05
    2.5405339897e-02    1.0216239844e+05
    2.5425618514e-02    1.0215825000e+05
    2.5445887819e-02    1.0215764844e+05
    2.5466147810e-02    1.0215106250e+05
    2.5486400351e-02    1.0214818750e+05
    2.5506639853e-02    1.0214321875e+05
    2.5526873767e-02    1.0213607031e+05
    2.5547094643e-02    1.0212690625e+05
    2.5567308068e-02    1.0211575000e+05
    2.5587510318e-02    1.0211190625e+05
    2.5607703254e-02    1.0210421094e+05
    2.5627886876e-02    1.0209196094e+05
    2.5648061186e-02    1.0208971094e+05
    2.5668226182e-02    1.0208305469e+05
    2.5688380003e-02    1.0207614844e+05
    2.5708526373e-02    1.0206283594e+05
    2.5728661567e-02    1.0205939844e+05
    2.5748789310e-02    1.0205335156e+05
    2.5768904015e-02    1.0203890625e+05
    2.5789011270e-02    1.0203227344e+05
    2.5809109211e-02    1.0202658594e+05
    2.5829195976e-02    1.0202085156e+05
    2.5849273428e-02    1.0201508594e+05
    2.5869343430e-02    1.0200446094e+05
    2.5889402255e-02    1.0199227344e+05
    2.5909451768e-02    1.0198550000e+05
    2.5929493830e-02    1.0197278906e+05
    2.5949522853e-02    1.0196497656e+05
    2.5969544426e-02    1.0195747656e+05
    2.5989556685e-02    1.0194952344e+05
    2.6009559631e-02    1.0194677344e+05
    2.6029553264e-02    1.0194085156e+05
    2.6049537584e-02    1.0193389844e+05
    2.6069512591e-02    1.0192810156e+05
    2.6089478284e-02    1.0191185156e+05
    2.6109432802e-02    1.0191274219e+05
    2.6129379869e-02    1.0190584375e+05
    2.6149315760e-02    1.0190160156e+05
    2.6169244200e-02    1.0190139844e+05
    2.6189163327e-02    1.0190456250e+05
    2.6209073141e-02    1.0190833594e+05
    2.6228975505e-02    1.0191078906e+05
    2.6248866692e-02    1.0191721094e+05
    2.6268748567e-02    1.0191991406e+05
    2.6288621128e-02    1.0192444531e+05
    2.6308484375e-02    1.0192975781e+05
    2.6328338310e-02    1.0194189844e+05
    2.6348184794e-02    1.0195172656e+05
    2.6368021965e-02    1.0196225781e+05
    2.6387847960e-02    1.0197271094e+05
    2.6407664642e-02    1.0198363281e+05
    2.6427472010e-02    1.0199414844e+05
    2.6447271928e-02    1.0200517969e+05
    2.6467062533e-02    1.0201814844e+05
    2.6486843824e-02    1.0202521094e+05
    2.6506617665e-02    1.0204234375e+05
    2.6526380330e-02    1.0204889844e+05
    2.6546133682e-02    1.0205721094e+05
    2.6565877721e-02    1.0206192969e+05
    2.6585612446e-02    1.0206774219e+05
    2.6605339721e-02    1.0207211719e+05
    2.6625057682e-02    1.0207394531e+05
    2.6644766331e-02    1.0207480469e+05
    2.6664465666e-02    1.0207764844e+05
    2.6684155688e-02    1.0208075781e+05
    2.6703836396e-02    1.0208113281e+05
    2.6723509654e-02    1.0208318750e+05
    2.6743173599e-02    1.0208210156e+05
    2.6762828231e-02    1.0207181250e+05
    2.6782475412e-02    1.0205797656e+05
    2.6802113280e-02    1.0205341406e+05
    2.6821739972e-02    1.0204225000e+05
    2.6841359213e-02    1.0203183594e+05
    2.6860967278e-02    1.0202658594e+05
    2.6880569756e-02    1.0201889844e+05
    2.6900164783e-02    1.0200246875e+05
    2.6919748634e-02    1.0199499219e+05
    2.6939325035e-02    1.0198278906e+05
    2.6958892122e-02    1.0197142969e+05
    2.6978449896e-02    1.0196483594e+05
    2.6997998357e-02    1.0195406250e+05
    2.7017539367e-02    1.0194796875e+05
    2.7037071064e-02    1.0194433594e+05
    2.7056595311e-02    1.0194316406e+05
    2.7076110244e-02    1.0194078125e+05
    2.7095617726e-02    1.0194358594e+05
    2.7115115896e-02    1.0194172656e+05
    2.7134604752e-02    1.0194728125e+05
    2.7154086158e-02    1.0194889844e+05
    2.7173558250e-02    1.0195064844e+05
    2.7193021029e-02    1.0195650000e+05
    2.7212476358e-02    1.0196446875e+05
    2.7231922373e-02    1.0196859375e+05
    2.7251357213e-02    1.0198208594e+05
    2.7270786464e-02    1.0198730469e+05
    2.7290204540e-02    1.0200137500e+05
    2.7309613302e-02    1.0200562500e+05
    2.7329014614e-02    1.0200766406e+05
    2.7348404750e-02    1.0201194531e+05
    2.7367785573e-02    1.0201628125e+05
    2.7387158945e-02    1.0201830469e+05
    2.7406521142e-02    1.0201986719e+05
    2.7425874025e-02    1.0202383594e+05
    2.7445219457e-02    1.0202606250e+05
    2.7464553714e-02    1.0203167969e+05
    2.7483878657e-02    1.0203172656e+05
    2.7503194287e-02    1.0203028906e+05
    2.7522502467e-02    1.0203196875e+05
    2.7541799471e-02    1.0202872656e+05
    2.7561087161e-02    1.0202687500e+05
    2.7580365539e-02    1.0202697656e+05
    2.7599634603e-02    1.0202560156e+05
    2.7618894354e-02    1.0202496875e+05
    2.7638144791e-02    1.0201933594e+05
    2.7657385916e-02    1.0201810156e+05
    2.7676619589e-02    1.0201811719e+05
    2.7695843950e-02    1.0201887500e+05
    2.7715058997e-02    1.0202113281e+05
    2.7734262869e-02    1.0203128125e+05
    2.7753459290e-02    1.0203364844e+05
    2.7772648260e-02    1.0203622656e+05
    2.7791827917e-02    1.0203907031e+05
    2.7810998261e-02    1.0204221875e+05
    2.7830159292e-02    1.0204971875e+05
    2.7849311009e-02    1.0205846094e+05
    2.7868455276e-02    1.0206357031e+05
    2.7887590230e-02    1.0206846094e+05
    2.7906717733e-02    1.0207457031e+05
    2.7925835922e-02    1.0207842969e+05
    2.7944946662e-02    1.0208221094e+05
    2.7964048088e-02    1.0208587500e+05
    2.7983140200e-02    1.0208942969e+05
    2.8002224863e-02    1.0209178906e+05
    2.8021300212e-02    1.0209394531e+05
    2.8040368110e-02    1.0209703906e+05
    2.8059426695e-02    1.0209430469e+05
    2.8078475967e-02    1.0209697656e+05
    2.8097519651e-02    1.0209456250e+05
    2.8116554022e-02    1.0209408594e+05
    2.8135580942e-02    1.0209422656e+05
    2.8154598549e-02    1.0208944531e+05
    2.8173606843e-02    1.0208419531e+05
    2.8192607686e-02    1.0208474219e+05
    2.8211599216e-02    1.0208946875e+05
    2.8230583295e-02    1.0208955469e+05
    2.8249559924e-02    1.0208777344e+05
    2.8268527240e-02    1.0208344531e+05
    2.8287487105e-02    1.0208344531e+05
    2.8306435794e-02    1.0208314844e+05
    2.8325378895e-02    1.0207572656e+05
    2.8344312683e-02    1.0207278906e+05
    2.8363237157e-02    1.0208168750e+05
    2.8382156044e-02    1.0208157031e+05
    2.8401065618e-02    1.0208149219e+05
    2.8419965878e-02    1.0208135156e+05
    2.8438858688e-02    1.0208111719e+05
    2.8457742184e-02    1.0208122656e+05
    2.8476616368e-02    1.0207196094e+05
    2.8495483100e-02    1.0207814844e+05
    2.8514338657e-02    1.0208109375e+05
    2.8533160686e-02    1.0208072656e+05
    2.8551930562e-02    1.0208155469e+05
    2.8570635244e-02    1.0208141406e+05
    2.8589271009e-02    1.0207978906e+05
    2.8607837856e-02    1.0208166406e+05
    2.8626350686e-02    1.0208322656e+05
    2.8644818813e-02    1.0208385156e+05
    2.8663259000e-02    1.0208527344e+05
    2.8681686148e-02    1.0208566406e+05
    2.8700113297e-02    1.0208677344e+05
    2.8718546033e-02    1.0209378906e+05
    2.8736986220e-02    1.0209028906e+05
    2.8755431995e-02    1.0209263281e+05
    2.8773877770e-02    1.0209377344e+05
    2.8792314231e-02    1.0209484375e+05
    2.8810730204e-02    1.0209475781e+05
    2.8829116374e-02    1.0209589844e+05
    2.8847465292e-02    1.0209713281e+05
    2.8865773231e-02    1.0209960156e+05
    2.8884036466e-02    1.0210099219e+05
    2.8902258724e-02    1.0210350000e+05
    2.8920443729e-02    1.0210959375e+05
    2.8938598931e-02    1.0210510156e+05
    2.8956729919e-02    1.0210637500e+05
    2.8974846005e-02    1.0210882031e+05
    2.8992949054e-02    1.0211012500e+05
    2.9011042789e-02    1.0211146094e+05
    2.9029129073e-02    1.0211394531e+05
    2.9047204182e-02    1.0211419531e+05
    2.9065268114e-02    1.0211560156e+05
    2.9083315283e-02    1.0211696875e+05
    2.9101338238e-02    1.0211834375e+05
    2.9119335115e-02    1.0211847656e+05
    2.9137304053e-02    1.0211964844e+05
    2.9155241325e-02    1.0211939844e+05
    2.9173148796e-02    1.0211671094e+05
    2.9191024601e-02    1.0211493750e+05
    2.9208874330e-02    1.0211528906e+05
    2.9226697981e-02    1.0211089844e+05
    2.9244501144e-02    1.0211231250e+05
    2.9262285680e-02    1.0211824219e+05
    2.9280053452e-02    1.0211608594e+05
    2.9297806323e-02    1.0211058594e+05
    2.9315544292e-02    1.0211605469e+05
    2.9333265498e-02    1.0211691406e+05
    2.9350971803e-02    1.0211475781e+05
    2.9368655756e-02    1.0211509375e+05
    2.9386319220e-02    1.0211791406e+05
    2.9403960332e-02    1.0211363281e+05
    2.9421577230e-02    1.0212446094e+05
    2.9439168051e-02    1.0211913281e+05
    2.9456734657e-02    1.0211627344e+05
    2.9474277049e-02    1.0211932031e+05
    2.9491795227e-02    1.0212812500e+05
    2.9509292915e-02    1.0212897656e+05
    2.9526771978e-02    1.0212972656e+05
    2.9544232413e-02    1.0213039844e+05
    2.9561674222e-02    1.0212869531e+05
    2.9579099268e-02    1.0212917969e+05
    2.9596509412e-02    1.0212965625e+05
    2.9613900930e-02    1.0213138281e+05
    2.9631273821e-02    1.0213197656e+05
    2.9648626223e-02    1.0213271875e+05
    2.9665958136e-02    1.0213488281e+05
    2.9683271423e-02    1.0213605469e+05
    2.9700560495e-02    1.0213633594e+05
    2.9717829078e-02    1.0214141406e+05
    2.9735075310e-02    1.0214425000e+05
    2.9752301052e-02    1.0214583594e+05
    2.9769508168e-02    1.0214757031e+05
    2.9786696658e-02    1.0214587500e+05
    2.9803866521e-02    1.0214741406e+05
    2.9821017757e-02    1.0214894531e+05
    2.9838152230e-02    1.0214989844e+05
    2.9855269939e-02    1.0215071094e+05
    2.9872370884e-02    1.0215211719e+05
    2.9889453202e-02    1.0215353906e+05
    2.9906518757e-02    1.0215521094e+05
    2.9923565686e-02    1.0216614844e+05
    2.9940593988e-02    1.0215981250e+05
    2.9957601801e-02    1.0216133594e+05
    2.9974590987e-02    1.0216271094e+05
    2.9991561547e-02    1.0216278906e+05
    3.0008511618e-02    1.0216396094e+05
    3.0025444925e-02    1.0216508594e+05
    3.0042361468e-02    1.0216506250e+05
    3.0059259385e-02    1.0216722656e+05
    3.0076142401e-02    1.0216811719e+05
    3.0093006790e-02    1.0216081250e+05
    3.0109854415e-02    1.0216152344e+05
    3.0126683414e-02    1.0216346094e+05
    3.0143497512e-02    1.0216828906e+05
    3.0160292983e-02    1.0217349219e+05
    3.0177071691e-02    1.0217449219e+05
    3.0193833634e-02    1.0216605469e+05
    3.0210576952e-02    1.0216630469e+05
    3.0227303505e-02    1.0215628906e+05
    3.0244011432e-02    1.0215605469e+05
    3.0260702595e-02    1.0214553906e+05
    3.0277376994e-02    1.0214375000e+05
    3.0294034630e-02    1.0213418750e+05
    3.0310675502e-02    1.0213008594e+05
    3.0327299610e-02    1.0212761719e+05
    3.0343905091e-02    1.0212513281e+05
    3.0360495672e-02    1.0212310156e+05
    3.0377071351e-02    1.0211972656e+05
    3.0393628404e-02    1.0210789844e+05
    3.0410168692e-02    1.0210372656e+05
    3.0426690355e-02    1.0209527344e+05
    3.0443195254e-02    1.0208641406e+05
    3.0459685251e-02    1.0208160156e+05
    3.0476156622e-02    1.0207682031e+05
    3.0492611229e-02    1.0207737500e+05
    3.0509050936e-02    1.0207558594e+05
    3.0525473878e-02    1.0207268750e+05
    3.0541881919e-02    1.0207102344e+05
    3.0558273196e-02    1.0206596094e+05
    3.0574647710e-02    1.0206332031e+05
    3.0591005459e-02    1.0205993750e+05
    3.0607348308e-02    1.0206065625e+05
    3.0623674393e-02    1.0206308594e+05
    3.0639985576e-02    1.0207099219e+05
    3.0656279996e-02    1.0207866406e+05
    3.0672557652e-02    1.0208821094e+05
    3.0688818544e-02    1.0209511719e+05
    3.0705062672e-02    1.0210062500e+05
    3.0721291900e-02    1.0210314844e+05
    3.0737506226e-02    1.0211518750e+05
    3.0753703788e-02    1.0211714844e+05
    3.0769886449e-02    1.0211983594e+05
    3.0786054209e-02    1.0212516406e+05
    3.0802207068e-02    1.0213525781e+05
    3.0818343163e-02    1.0213756250e+05
    3.0834466219e-02    1.0214231250e+05
    3.0850572512e-02    1.0214608594e+05
    3.0866663903e-02    1.0214889844e+05
    3.0882738531e-02    1.0216056250e+05
    3.0898798257e-02    1.0216707031e+05
    3.0914843082e-02    1.0216258594e+05
    3.0930871144e-02    1.0216536719e+05
    3.0946886167e-02    1.0217018750e+05
    3.0962884426e-02    1.0217356250e+05
    3.0978867784e-02    1.0216622656e+05
    3.0994836241e-02    1.0217000000e+05
    3.1010789797e-02    1.0217236719e+05
    3.1026728451e-02    1.0216522656e+05
    3.1042650342e-02    1.0216824219e+05
    3.1058559194e-02    1.0216878125e+05
    3.1074455008e-02    1.0217041406e+05
    3.1090334058e-02    1.0217196094e+05
    3.1106200069e-02    1.0217325000e+05
    3.1122051179e-02    1.0216505469e+05
    3.1137887388e-02    1.0216631250e+05
    3.1153710559e-02    1.0216496094e+05
    3.1169516966e-02    1.0215791406e+05
    3.1185310334e-02    1.0215633594e+05
    3.1201090664e-02    1.0215572656e+05
    3.1216854230e-02    1.0215510156e+05
    3.1232602894e-02    1.0215561719e+05
    3.1248336658e-02    1.0215025000e+05
    3.1264055520e-02    1.0214627344e+05
    3.1279761344e-02    1.0214508594e+05
    3.1295452267e-02    1.0214510156e+05
    3.1311132014e-02    1.0214452344e+05
    3.1326796860e-02    1.0214383594e+05
    3.1342446804e-02    1.0214408594e+05
    3.1358085573e-02    1.0214296094e+05
    3.1373709440e-02    1.0213230469e+05
    3.1389318407e-02    1.0213068750e+05
    3.1404916197e-02    1.0212908594e+05
    3.1420499086e-02    1.0212759375e+05
    3.1436067075e-02    1.0212965625e+05
    3.1451620162e-02    1.0213546094e+05
    3.1467158347e-02    1.0213446875e+05
    3.1482685357e-02    1.0213356250e+05
    3.1498193741e-02    1.0213278906e+05
    3.1513694674e-02    1.0213212500e+05
    3.1529176980e-02    1.0213168750e+05
    3.1544648111e-02    1.0213269531e+05
    3.1560108066e-02    1.0214208594e+05
    3.1575553119e-02    1.0214135156e+05
    3.1590986997e-02    1.0214300000e+05
    3.1606405973e-02    1.0214349219e+05
    3.1621813774e-02    1.0214341406e+05
    3.1637206674e-02    1.0214450781e+05
    3.1652588397e-02    1.0214443750e+05
    3.1667951494e-02    1.0214447656e+05
    3.1683307141e-02    1.0214618750e+05
    3.1698647887e-02    1.0214668750e+05
    3.1713977456e-02    1.0214650781e+05
    3.1729292125e-02    1.0214506250e+05
    3.1744595617e-02    1.0214290625e+05
    3.1759884208e-02    1.0214172656e+05
    3.1775161624e-02    1.0213699219e+05
    3.1790427864e-02    1.0213685156e+05
    3.1805675477e-02    1.0213550781e+05
    3.1820915639e-02    1.0213580469e+05
    3.1836140901e-02    1.0213483594e+05
    3.1851354986e-02    1.0213435156e+05
    3.1866557896e-02    1.0213375000e+05
    3.1881745905e-02    1.0213191406e+05
    3.1896922737e-02    1.0213114844e+05
    3.1912088394e-02    1.0212928125e+05
    3.1927239150e-02    1.0213207031e+05
    3.1942378730e-02    1.0213275781e+05
    3.1957507133e-02    1.0213233594e+05
    3.1972620636e-02    1.0213197656e+05
    3.1987726688e-02    1.0213378906e+05
    3.2002814114e-02    1.0213107031e+05
    3.2017890364e-02    1.0212722656e+05
    3.2032959163e-02    1.0212452344e+05
    3.2048013061e-02    1.0212466406e+05
    3.2063052058e-02    1.0212487500e+05
    3.2078083605e-02    1.0212689844e+05
    3.2093103975e-02    1.0212786719e+05
    3.2108109444e-02    1.0213221875e+05
    3.2123107463e-02    1.0213205469e+05
    3.2138090581e-02    1.0212714844e+05
    3.2153062522e-02    1.0212239844e+05
    3.2168023288e-02    1.0213253906e+05
    3.2182972878e-02    1.0213250000e+05
    3.2197911292e-02    1.0213371094e+05
    3.2212834805e-02    1.0213275781e+05
    3.2227750868e-02    1.0213416406e+05
    3.2242652029e-02    1.0213341406e+05
    3.2257542014e-02    1.0213507031e+05
    3.2272424549e-02    1.0213578906e+05
    3.2287292182e-02    1.0213790625e+05
    3.2302148640e-02    1.0213966406e+05
    3.2316997647e-02    1.0214850781e+05
    3.2331831753e-02    1.0214747656e+05
    3.2346658409e-02    1.0214414844e+05
    3.2361470163e-02    1.0214650000e+05
    3.2376270741e-02    1.0214775000e+05
    3.2391063869e-02    1.0214896094e+05
    3.2405842096e-02    1.0215016406e+05
    3.2420612872e-02    1.0215247656e+05
    3.2435368747e-02    1.0215253906e+05
    3.2450113446e-02    1.0215363281e+05
    3.2464850694e-02    1.0215466406e+05
    3.2479573041e-02    1.0215553906e+05
    3.2494287938e-02    1.0215627344e+05
    3.2508991659e-02    1.0215458594e+05
    3.2523684204e-02    1.0215265625e+05
    3.2538365573e-02    1.0215272656e+05
    3.2553035766e-02    1.0214691406e+05
    3.2567698509e-02    1.0214939844e+05
    3.2582346350e-02    1.0215713281e+05
    3.2596986741e-02    1.0215814844e+05
    3.2611619681e-02    1.0215853906e+05
    3.2626237720e-02    1.0214966406e+05
    3.2640848309e-02    1.0214871094e+05
    3.2655447721e-02    1.0214889844e+05
    3.2670035958e-02    1.0215818750e+05
    3.2684613019e-02    1.0215496094e+05
    3.2699178904e-02    1.0215266406e+05
    3.2713737339e-02    1.0214778906e+05
    3.2728284597e-02    1.0214681250e+05
    3.2742820680e-02    1.0214684375e+05
    3.2757349312e-02    1.0214617969e+05
    3.2771866769e-02    1.0214197656e+05
    3.2786373049e-02    1.0213994531e+05
    3.2800871879e-02    1.0213896094e+05
    3.2815355808e-02    1.0213694531e+05
    3.2829832286e-02    1.0214167969e+05
    3.2844301313e-02    1.0213497656e+05
    3.2858755440e-02    1.0213466406e+05
    3.2873202115e-02    1.0212867969e+05
    3.2887637615e-02    1.0213135156e+05
    3.2902065665e-02    1.0213752344e+05
    3.2916482538e-02    1.0213747656e+05
    3.2930891961e-02    1.0213291406e+05
    3.2945290208e-02    1.0212696094e+05
    3.2959677279e-02    1.0213022656e+05
    3.2974056900e-02    1.0213539844e+05
    3.2988425344e-02    1.0213482031e+05
    3.3002786338e-02    1.0213418750e+05
    3.3017136157e-02    1.0212894531e+05
    3.3031478524e-02    1.0212341406e+05
    3.3045809716e-02    1.0212833594e+05
    3.3060129732e-02    1.0212571875e+05
    3.3074442297e-02    1.0211950781e+05
    3.3088747412e-02    1.0212209375e+05
    3.3103041351e-02    1.0212359375e+05
    3.3117324114e-02    1.0212524219e+05
    3.3131599426e-02    1.0211766406e+05
    3.3145863563e-02    1.0211922656e+05
    3.3160120249e-02    1.0212605469e+05
    3.3174365759e-02    1.0211800000e+05
    3.3188603818e-02    1.0211496875e+05
    3.3202830702e-02    1.0211896094e+05
    3.3217050135e-02    1.0211738281e+05
    3.3231258392e-02    1.0211452344e+05
    3.3245459199e-02    1.0211343750e+05
    3.3259648830e-02    1.0211408594e+05
    3.3273831010e-02    1.0211363281e+05
    3.3288005739e-02    1.0211268750e+05
    3.3302169293e-02    1.0211702344e+05
    3.3316325396e-02    1.0211487500e+05
    3.3330474049e-02    1.0211260156e+05
    3.3344611526e-02    1.0211200781e+05
    3.3358741552e-02    1.0211128906e+05
    3.3372864127e-02    1.0210933594e+05
    3.3386975527e-02    1.0210837500e+05
    3.3401079476e-02    1.0210728906e+05
    3.3415172249e-02    1.0210547656e+05
    3.3429257572e-02    1.0210119531e+05
    3.3443335444e-02    1.0209847656e+05
    3.3457405865e-02    1.0209339844e+05
    3.3471468836e-02    1.0208946094e+05
    3.3485524356e-02    1.0209016406e+05
    3.3499568701e-02    1.0209105469e+05
    3.3513605595e-02    1.0209563281e+05
    3.3527631313e-02    1.0209459375e+05
    3.3541653305e-02    1.0209477344e+05
    3.3555664122e-02    1.0209389844e+05
    3.3569667488e-02    1.0209300781e+05
    3.3583663404e-02    1.0209271875e+05
    3.3597648144e-02    1.0209178906e+05
    3.3611625433e-02    1.0208784375e+05
    3.3625595272e-02    1.0208438281e+05
    3.3639557660e-02    1.0208564844e+05
    3.3653512597e-02    1.0208450000e+05
    3.3667460084e-02    1.0208330469e+05
    3.3681396395e-02    1.0207984375e+05
    3.3695328981e-02    1.0208308594e+05
    3.3709254116e-02    1.0207382031e+05
    3.3723168075e-02    1.0207260156e+05
    3.3737078309e-02    1.0207617969e+05
    3.3750977367e-02    1.0207971094e+05
    3.3764872700e-02    1.0207640625e+05
    3.3778760582e-02    1.0207262500e+05
    3.3792637289e-02    1.0207109375e+05
    3.3806510270e-02    1.0206999219e+05
    3.3820372075e-02    1.0206662500e+05
    3.3834230155e-02    1.0206322656e+05
    3.3848077059e-02    1.0206214844e+05
    3.3861916512e-02    1.0206396875e+05
    3.3875752240e-02    1.0206049219e+05
    3.3889576793e-02    1.0205871875e+05
    3.3903393894e-02    1.0205750000e+05
    3.3917203546e-02    1.0205628906e+05
    3.3931009471e-02    1.0205502344e+05
    3.3944804221e-02    1.0205364844e+05
    3.3958595246e-02    1.0205208594e+05
    3.3972378820e-02    1.0205036719e+05
    3.3986151218e-02    1.0204792969e+05
    3.3999919891e-02    1.0204602344e+05
    3.4013681114e-02    1.0204022656e+05
    3.4027434886e-02    1.0204064844e+05
    3.4041177481e-02    1.0203889844e+05
    3.4054916352e-02    1.0204055469e+05
    3.4068647772e-02    1.0203883594e+05
    3.4082375467e-02    1.0203416406e+05
    3.4096091986e-02    1.0203412500e+05
    3.4109804779e-02    1.0203231250e+05
    3.4123510122e-02    1.0203039844e+05
    3.4137208015e-02    1.0202728906e+05
    3.4150898457e-02    1.0202414844e+05
    3.4164581448e-02    1.0202322656e+05
    3.4178260714e-02    1.0201996875e+05
    3.4191932529e-02    1.0201896875e+05
    3.4205596894e-02    1.0201353906e+05
    3.4219253808e-02    1.0201484375e+05
    3.4232903272e-02    1.0201292969e+05
    3.4246545285e-02    1.0201216406e+05
    3.4260183573e-02    1.0200916406e+05
    3.4273810685e-02    1.0200625000e+05
    3.4287434071e-02    1.0200207031e+05
    3.4301050007e-02    1.0200371094e+05
    3.4314658493e-02    1.0200082031e+05
    3.4328263253e-02    1.0199807031e+05
    3.4341860563e-02    1.0199971094e+05
    3.4355450422e-02    1.0199675000e+05
    3.4369036555e-02    1.0199500781e+05
    3.4382611513e-02    1.0199325000e+05
    3.4396182746e-02    1.0199259375e+05
    3.4409742802e-02    1.0199028125e+05
    3.4423299134e-02    1.0198912500e+05
    3.4436848015e-02    1.0198516406e+05
    3.4450393170e-02    1.0198347656e+05
    3.4463927150e-02    1.0198175781e+05
    3.4477461129e-02    1.0197899219e+05
    3.4490987659e-02    1.0198063281e+05
    3.4504506737e-02    1.0197435156e+05
    3.4518022090e-02    1.0197778906e+05
    3.4531529993e-02    1.0197552344e+05
    3.4545030445e-02    1.0196922656e+05
    3.4558523446e-02    1.0196290625e+05
    3.4572008997e-02    1.0197039844e+05
    3.4585487098e-02    1.0196817969e+05
    3.4598957747e-02    1.0196710156e+05
    3.4612424672e-02    1.0195625781e+05
    3.4625884145e-02    1.0195752344e+05
    3.4639336169e-02    1.0196216406e+05
    3.4652780741e-02    1.0196058594e+05
    3.4666225314e-02    1.0195771094e+05
    3.4679658711e-02    1.0194807031e+05
    3.4693088382e-02    1.0195102344e+05
    3.4706510603e-02    1.0195039844e+05
    3.4719929099e-02    1.0194403906e+05
    3.4733340144e-02    1.0193996094e+05
    3.4746743739e-02    1.0194750000e+05
    3.4760143608e-02    1.0194249219e+05
    3.4773536026e-02    1.0193858594e+05
    3.4786924720e-02    1.0193518750e+05
    3.4800305963e-02    1.0193344531e+05
    3.4813679755e-02    1.0193233594e+05
    3.4827046096e-02    1.0193063281e+05
    3.4840408713e-02    1.0192896094e+05
    3.4853763878e-02    1.0192725781e+05
    3.4867111593e-02    1.0192433594e+05
    3.4880455583e-02    1.0192365625e+05
    3.4893795848e-02    1.0192177344e+05
    3.4907124937e-02    1.0191977344e+05
    3.4920454025e-02    1.0191761719e+05
    3.4933775663e-02    1.0191317969e+05
    3.4947093576e-02    1.0190746875e+05
    3.4960404038e-02    1.0191071875e+05
    3.4973710775e-02    1.0190831250e+05
    3.4987010062e-02    1.0190366406e+05
endcurve
