Curveplot
LS-DYNA keyword deck by LS-PrePost                          
Time
Pressure
Defined Connection
Pressure @ 54 #pts=1745
* Minval=     9.9323664062e+04 at time=         0.0135915317
* Maxval=     1.6925245312e+05 at time=         0.0067296871
    0.0000000000e+00    9.9996789062e+04
    3.3812357287e-05    9.9996789062e+04
    6.1326652940e-05    9.9999343750e+04
    8.9102875791e-05    9.9998398438e+04
    1.1682785407e-04    9.9997460938e+04
    1.4461828687e-04    9.9998875000e+04
    1.7236733402e-04    9.9998367188e+04
    2.0016246708e-04    1.0001040625e+05
    2.2795486439e-04    1.0000072656e+05
    2.5574557367e-04    9.9999617188e+04
    2.8353667585e-04    1.0000039844e+05
    3.1133697485e-04    9.9989867188e+04
    3.3912662184e-04    9.9999500000e+04
    3.6691734567e-04    1.0000146875e+05
    3.9470891352e-04    9.9999617188e+04
    4.2249175021e-04    1.0000478906e+05
    4.5027161832e-04    1.0000086719e+05
    4.7804549104e-04    1.0000247656e+05
    5.0581363030e-04    1.0000272656e+05
    5.3357944125e-04    1.0000161719e+05
    5.6134146871e-04    1.0000241406e+05
    5.8909942163e-04    9.9991601562e+04
    6.1685312539e-04    1.0000025781e+05
    6.4460188150e-04    1.0000033594e+05
    6.7234638846e-04    1.0000261719e+05
    7.0008635521e-04    9.9998460938e+04
    7.2782178177e-04    9.9996507812e+04
    7.5555208605e-04    1.0000099219e+05
    7.8327720985e-04    1.0000011719e+05
    8.1099680392e-04    1.0000403125e+05
    8.3871174138e-04    1.0000155469e+05
    8.6642213864e-04    1.0000341406e+05
    8.9412782108e-04    9.9994062500e+04
    9.2182843946e-04    9.9996679688e+04
    9.4952445943e-04    1.0000065625e+05
    9.7721535712e-04    1.0000658594e+05
    1.0049008997e-03    1.0000160156e+05
    1.0325826006e-03    1.0000150000e+05
    1.0602590628e-03    9.9997726562e+04
    1.0879321489e-03    1.0000180469e+05
    1.1155996472e-03    9.9997000000e+04
    1.1432634201e-03    9.9992085938e+04
    1.1709230021e-03    1.0000083594e+05
    1.1985785095e-03    9.9999882812e+04
    1.2262313394e-03    1.0000722656e+05
    1.2538790470e-03    1.0000225781e+05
    1.2815232622e-03    1.0000214844e+05
    1.3091630535e-03    1.0000237500e+05
    1.3368004002e-03    1.0000371875e+05
    1.3644339051e-03    1.0000985156e+05
    1.3920635683e-03    1.0002371094e+05
    1.4196902048e-03    1.0005244531e+05
    1.4473132323e-03    1.0010266406e+05
    1.4749332331e-03    1.0019239844e+05
    1.5025498578e-03    1.0032467969e+05
    1.5301633393e-03    1.0051366406e+05
    1.5577742597e-03    1.0077352344e+05
    1.5853822697e-03    1.0109802344e+05
    1.6129877185e-03    1.0146934375e+05
    1.6405890929e-03    1.0186791406e+05
    1.6681876732e-03    1.0225946094e+05
    1.6957829939e-03    1.0260028906e+05
    1.7233766848e-03    1.0286685156e+05
    1.7509678146e-03    1.0304877344e+05
    1.7785291420e-03    1.0313528906e+05
    1.8060547300e-03    1.0313064844e+05
    1.8335470231e-03    1.0305453125e+05
    1.8610082334e-03    1.0292134375e+05
    1.8884401070e-03    1.0275197656e+05
    1.9158447394e-03    1.0258030469e+05
    1.9432241097e-03    1.0241666406e+05
    1.9705800805e-03    1.0229182031e+05
    1.9979148638e-03    1.0222112500e+05
    2.0252298564e-03    1.0219259375e+05
    2.0525271539e-03    1.0221864844e+05
    2.0798076876e-03    1.0227141406e+05
    2.1070730872e-03    1.0234108594e+05
    2.1343247499e-03    1.0241606250e+05
    2.1615643054e-03    1.0247913281e+05
    2.1887931507e-03    1.0252985156e+05
    2.2160108201e-03    1.0255014844e+05
    2.2432196420e-03    1.0254300781e+05
    2.2704207804e-03    1.0251735156e+05
    2.2976147011e-03    1.0247757031e+05
    2.3248014040e-03    1.0243928125e+05
    2.3519827519e-03    1.0240928906e+05
    2.3791582789e-03    1.0239371875e+05
    2.4063293822e-03    1.0238812500e+05
    2.4334960617e-03    1.0238821094e+05
    2.4606597144e-03    1.0239783594e+05
    2.4878205732e-03    1.0240947656e+05
    2.5149781723e-03    1.0242271094e+05
    2.5421329774e-03    1.0244132031e+05
    2.5692859199e-03    1.0244810156e+05
    2.5964374654e-03    1.0245140625e+05
    2.6235871483e-03    1.0244678125e+05
    2.6507352013e-03    1.0243521094e+05
    2.6778825559e-03    1.0242316406e+05
    2.7050296776e-03    1.0242177344e+05
    2.7321761008e-03    1.0241614844e+05
    2.7593218256e-03    1.0241488281e+05
    2.7864677832e-03    1.0242085156e+05
    2.8136142064e-03    1.0242313281e+05
    2.8407603968e-03    1.0243603125e+05
    2.8679079842e-03    1.0244892969e+05
    2.8950548731e-03    1.0246257031e+05
    2.9222022276e-03    1.0247742969e+05
    2.9493502807e-03    1.0252193750e+05
    2.9764990322e-03    1.0257375781e+05
    3.0036487151e-03    1.0264518750e+05
    3.0307997949e-03    1.0272452344e+05
    3.0579508748e-03    1.0281096094e+05
    3.0851035845e-03    1.0291396875e+05
    3.1122572254e-03    1.0301560156e+05
    3.1394117977e-03    1.0312159375e+05
    3.1665677670e-03    1.0320446094e+05
    3.1937246677e-03    1.0326885156e+05
    3.2208829653e-03    1.0330212500e+05
    3.2480424270e-03    1.0331206250e+05
    3.2752046827e-03    1.0329609375e+05
    3.2952371985e-03    1.0325664844e+05
    3.3145032357e-03    1.0321686719e+05
    3.3336398192e-03    1.0317975000e+05
    3.3528339118e-03    1.0313981250e+05
    3.3720366191e-03    1.0309768750e+05
    3.3912549261e-03    1.0305800781e+05
    3.4104890656e-03    1.0301819531e+05
    3.4297339153e-03    1.0297934375e+05
    3.4486323129e-03    1.0293117969e+05
    3.4671388566e-03    1.0288647656e+05
    3.4854323603e-03    1.0283385156e+05
    3.5036695190e-03    1.0277360156e+05
    3.5219141282e-03    1.0270675000e+05
    3.5401545465e-03    1.0263792969e+05
    3.5583588760e-03    1.0256503906e+05
    3.5765271168e-03    1.0249341406e+05
    3.5946895368e-03    1.0242624219e+05
    3.6139658187e-03    1.0236709375e+05
    3.6330535077e-03    1.0231539844e+05
    3.6521453876e-03    1.0227971094e+05
    3.6699753255e-03    1.0225083594e+05
    3.6875614896e-03    1.0223169531e+05
    3.7050142419e-03    1.0221524219e+05
    3.7224807311e-03    1.0219989844e+05
    3.7400643341e-03    1.0218310156e+05
    3.7577797193e-03    1.0216803125e+05
    3.7755726371e-03    1.0214990625e+05
    3.7933769636e-03    1.0214042969e+05
    3.8111612666e-03    1.0213160156e+05
    3.8289318327e-03    1.0212828906e+05
    3.8467168342e-03    1.0212692969e+05
    3.8645383902e-03    1.0212378125e+05
    3.8824023213e-03    1.0211966406e+05
    3.9002960548e-03    1.0211036719e+05
    3.9182156324e-03    1.0209403906e+05
    3.9361710660e-03    1.0207710156e+05
    3.9541716687e-03    1.0204915625e+05
    3.9733103476e-03    1.0203228125e+05
    3.9924201556e-03    1.0201421094e+05
    4.0104058571e-03    1.0199553906e+05
    4.0284004062e-03    1.0198813281e+05
    4.0464363992e-03    1.0198188281e+05
    4.0656095371e-03    1.0197658594e+05
    4.0847789496e-03    1.0196412500e+05
    4.1039343923e-03    1.0195922656e+05
    4.1219722480e-03    1.0194706250e+05
    4.1400394402e-03    1.0194475781e+05
    4.1591953486e-03    1.0194188281e+05
    4.1784178466e-03    1.0193346094e+05
    4.1976389475e-03    1.0192733594e+05
    4.2168586515e-03    1.0192075781e+05
    4.2360713705e-03    1.0191067969e+05
    4.2552771047e-03    1.0189916406e+05
    4.2744791135e-03    1.0188814844e+05
    4.2936825193e-03    1.0187747656e+05
    4.3128933758e-03    1.0186569531e+05
    4.3321144767e-03    1.0185308594e+05
    4.3513495475e-03    1.0183800000e+05
    4.3705995195e-03    1.0182282031e+05
    4.3898657896e-03    1.0180027344e+05
    4.4091497548e-03    1.0177503125e+05
    4.4284537435e-03    1.0174693750e+05
    4.4477786869e-03    1.0171896094e+05
    4.4671236537e-03    1.0167587500e+05
    4.4864914380e-03    1.0162946875e+05
    4.5058806427e-03    1.0156610156e+05
    4.5252908021e-03    1.0149440625e+05
    4.5447219163e-03    1.0140674219e+05
    4.5641721226e-03    1.0131210156e+05
    4.5836409554e-03    1.0120852344e+05
    4.6031279489e-03    1.0110021094e+05
    4.6226321720e-03    1.0098491406e+05
    4.6421540901e-03    1.0086417969e+05
    4.6616927721e-03    1.0073643750e+05
    4.6812482178e-03    1.0061722656e+05
    4.7008208930e-03    1.0050675781e+05
    4.7204112634e-03    1.0039627344e+05
    4.7400193289e-03    1.0030840625e+05
    4.7596455552e-03    1.0023435156e+05
    4.7792894766e-03    1.0018040625e+05
    4.7989510931e-03    1.0015121094e+05
    4.8186304048e-03    1.0014190625e+05
    4.8383255489e-03    1.0015427344e+05
    4.8580355942e-03    1.0018600000e+05
    4.8777610064e-03    1.0023297656e+05
    4.8975008540e-03    1.0028621094e+05
    4.9172551371e-03    1.0034865625e+05
    4.9370229244e-03    1.0041190625e+05
    4.9568060786e-03    1.0047297656e+05
    4.9766036682e-03    1.0053046875e+05
    4.9964170903e-03    1.0057449219e+05
    5.0162458792e-03    1.0061271094e+05
    5.0360900350e-03    1.0064787500e+05
    5.0559476949e-03    1.0066517969e+05
    5.0758207217e-03    1.0067962500e+05
    5.0957072526e-03    1.0067803906e+05
    5.1156077534e-03    1.0067546875e+05
    5.1355226897e-03    1.0066114844e+05
    5.1554525271e-03    1.0064402344e+05
    5.1753963344e-03    1.0063175781e+05
    5.1953555085e-03    1.0061663281e+05
    5.2153295837e-03    1.0060296875e+05
    5.2353194915e-03    1.0058928906e+05
    5.2553247660e-03    1.0057746094e+05
    5.2753463387e-03    1.0057411719e+05
    5.2953832783e-03    1.0057152344e+05
    5.3154369816e-03    1.0057247656e+05
    5.3355065174e-03    1.0058002344e+05
    5.3555918857e-03    1.0059328125e+05
    5.3756926209e-03    1.0060107031e+05
    5.3958082572e-03    1.0061621094e+05
    5.4159392603e-03    1.0062978125e+05
    5.4360851645e-03    1.0063935156e+05
    5.4562464356e-03    1.0065090625e+05
    5.4764230736e-03    1.0065935156e+05
    5.4966160096e-03    1.0066443750e+05
    5.5168238468e-03    1.0066372656e+05
    5.5370470509e-03    1.0066313281e+05
    5.5572865531e-03    1.0066596094e+05
    5.5775423534e-03    1.0067135156e+05
    5.5978130549e-03    1.0067735156e+05
    5.6181000546e-03    1.0067943750e+05
    5.6384028867e-03    1.0067235156e+05
    5.6587206200e-03    1.0067421094e+05
    5.6790532544e-03    1.0067625781e+05
    5.6994007900e-03    1.0067960156e+05
    5.7197632268e-03    1.0068228125e+05
    5.7401410304e-03    1.0068386719e+05
    5.7605337352e-03    1.0068453125e+05
    5.7809422724e-03    1.0068778906e+05
    5.8013652451e-03    1.0069346094e+05
    5.8218040504e-03    1.0069715625e+05
    5.8422577567e-03    1.0070116406e+05
    5.8627268299e-03    1.0071510156e+05
    5.8832112700e-03    1.0072082031e+05
    5.9037101455e-03    1.0072471094e+05
    5.9242248535e-03    1.0072887500e+05
    5.9447535314e-03    1.0073183594e+05
    5.9641525149e-03    1.0073584375e+05
    5.9830932878e-03    1.0073988281e+05
    6.0020405799e-03    1.0074410156e+05
    6.0210367665e-03    1.0074867969e+05
    6.0400799848e-03    1.0076253906e+05
    6.0591096990e-03    1.0076852344e+05
    6.0781282373e-03    1.0077108594e+05
    6.0972142965e-03    1.0077747656e+05
    6.1162756756e-03    1.0078235156e+05
    6.1353649944e-03    1.0078672656e+05
    6.1544459313e-03    1.0080125781e+05
    6.1734300107e-03    1.0080825781e+05
    6.1924448237e-03    1.0081660156e+05
    6.2115197070e-03    1.0082728906e+05
    6.2306127511e-03    1.0083516406e+05
    6.2497169711e-03    1.0084091406e+05
    6.2688281760e-03    1.0085246094e+05
    6.2879407778e-03    1.0086371094e+05
    6.3070552424e-03    1.0087841406e+05
    6.3261794858e-03    1.0088888281e+05
    6.3453060575e-03    1.0090738281e+05
    6.3644465990e-03    1.0092728906e+05
    6.3835908659e-03    1.0095306250e+05
    6.4027444459e-03    1.0098030469e+05
    6.4219115302e-03    1.0101897656e+05
    6.4410855994e-03    1.0107881250e+05
    6.4602680504e-03    1.0118314844e+05
    6.4794607460e-03    1.0138422656e+05
    6.4986641519e-03    1.0178739844e+05
    6.5178787336e-03    1.0260519531e+05
    6.5371058881e-03    1.0420012500e+05
    6.5563363023e-03    1.0714235156e+05
    6.5755699761e-03    1.1208543750e+05
    6.5948092379e-03    1.1950602344e+05
    6.6140629351e-03    1.2930756250e+05
    6.6333152354e-03    1.4052051562e+05
    6.6525745206e-03    1.5144260938e+05
    6.6718445159e-03    1.6033743750e+05
    6.6911154427e-03    1.6618771875e+05
    6.7104012705e-03    1.6893256250e+05
    6.7296870984e-03    1.6925245312e+05
    6.7489854991e-03    1.6814240625e+05
    6.7682852969e-03    1.6644189062e+05
    6.7875892855e-03    1.6479587500e+05
    6.8069072440e-03    1.6341689062e+05
    6.8262196146e-03    1.6223289062e+05
    6.8455408327e-03    1.6109167188e+05
    6.8648783490e-03    1.5982468750e+05
    6.8842126057e-03    1.5833962500e+05
    6.9035501219e-03    1.5665234375e+05
    6.9228983484e-03    1.5481103125e+05
    6.9422605447e-03    1.5292854688e+05
    6.9616222754e-03    1.5107664062e+05
    6.9809844717e-03    1.4932268750e+05
    7.0003494620e-03    1.4768007812e+05
    7.0197195746e-03    1.4613495312e+05
    7.0390999317e-03    1.4466615625e+05
    7.0584909990e-03    1.4324193750e+05
    7.0778946392e-03    1.4185168750e+05
    7.0973108523e-03    1.4048954688e+05
    7.1167377755e-03    1.3916929688e+05
    7.1361698210e-03    1.3789992188e+05
    7.1556069888e-03    1.3669712500e+05
    7.1750483476e-03    1.3557479688e+05
    7.1944966912e-03    1.3452004688e+05
    7.2139529511e-03    1.3353678125e+05
    7.2334166616e-03    1.3260771875e+05
    7.2528840974e-03    1.3172942188e+05
    7.2723543271e-03    1.3089572656e+05
    7.2918278165e-03    1.3010602344e+05
    7.3113050312e-03    1.2934705469e+05
    7.3307845742e-03    1.2862791406e+05
    7.3502692394e-03    1.2794708594e+05
    7.3697618209e-03    1.2729953906e+05
    7.3892641813e-03    1.2668150000e+05
    7.4087800458e-03    1.2610197656e+05
    7.4282912537e-03    1.2555292969e+05
    7.4477996677e-03    1.2502589844e+05
    7.4673094787e-03    1.2451380469e+05
    7.4868267402e-03    1.2402147656e+05
    7.5063589029e-03    1.2354802344e+05
    7.5258887373e-03    1.2309425000e+05
    7.5454111211e-03    1.2265721875e+05
    7.5649353676e-03    1.2224927344e+05
    7.5844703242e-03    1.2187439844e+05
    7.6040057465e-03    1.2152521094e+05
    7.6235276647e-03    1.2120928906e+05
    7.6430505142e-03    1.2091692969e+05
    7.6625877991e-03    1.2064766406e+05
    7.6821087860e-03    1.2039659375e+05
    7.7016241848e-03    1.2015684375e+05
    7.7211544849e-03    1.1993197656e+05
    7.7406810597e-03    1.1971650000e+05
    7.7602043748e-03    1.1950832031e+05
    7.7797495760e-03    1.1930494531e+05
    7.7992938459e-03    1.1911597656e+05
    7.8188432381e-03    1.1893092969e+05
    7.8384252265e-03    1.1873913281e+05
    7.8580006957e-03    1.1854590625e+05
    7.8775910661e-03    1.1835227344e+05
    7.8972103074e-03    1.1814610156e+05
    7.9168286175e-03    1.1794293750e+05
    7.9364804551e-03    1.1773508594e+05
    7.9561360180e-03    1.1752771094e+05
    7.9758102074e-03    1.1732825781e+05
    7.9955114052e-03    1.1712597656e+05
    8.0152126029e-03    1.1692818750e+05
    8.0349491909e-03    1.1673033594e+05
    8.0546662211e-03    1.1653635156e+05
    8.0743944272e-03    1.1634469531e+05
    8.0941170454e-03    1.1615722656e+05
    8.1138620153e-03    1.1597821875e+05
    8.1336386502e-03    1.1580637500e+05
    8.1534720957e-03    1.1563768750e+05
    8.1733558327e-03    1.1547910156e+05
    8.1932730973e-03    1.1532953906e+05
    8.2132071257e-03    1.1519319531e+05
    8.2330890000e-03    1.1506535156e+05
    8.2529615611e-03    1.1495152344e+05
    8.2727763802e-03    1.1484116406e+05
    8.2926023751e-03    1.1474289844e+05
    8.3124246448e-03    1.1464622656e+05
    8.3322748542e-03    1.1455443750e+05
    8.3521194756e-03    1.1446260156e+05
    8.3719678223e-03    1.1437360156e+05
    8.3917891607e-03    1.1427733594e+05
    8.4116021171e-03    1.1417527344e+05
    8.4314141423e-03    1.1406710156e+05
    8.4512168542e-03    1.1394631250e+05
    8.4710381925e-03    1.1382286719e+05
    8.4908353165e-03    1.1368643750e+05
    8.5106678307e-03    1.1355342969e+05
    8.5304882377e-03    1.1341322656e+05
    8.5503393784e-03    1.1327522656e+05
    8.5699046031e-03    1.1313575000e+05
    8.5892248899e-03    1.1300022656e+05
    8.6083402857e-03    1.1287055469e+05
    8.6272666231e-03    1.1274742969e+05
    8.6460309103e-03    1.1263585156e+05
    8.6646731943e-03    1.1254008594e+05
    8.6832325906e-03    1.1245582031e+05
    8.7017398328e-03    1.1237996875e+05
    8.7202098221e-03    1.1231631250e+05
    8.7386453524e-03    1.1225760156e+05
    8.7570473552e-03    1.1220553906e+05
    8.7753897533e-03    1.1216744531e+05
    8.7936492637e-03    1.1213060156e+05
    8.8118780404e-03    1.1209615625e+05
    8.8300397620e-03    1.1205761719e+05
    8.8481390849e-03    1.1202005469e+05
    8.8662039489e-03    1.1197296094e+05
    8.8842641562e-03    1.1192356250e+05
    8.9023411274e-03    1.1187289844e+05
    8.9204348624e-03    1.1180857031e+05
    8.9385388419e-03    1.1173474219e+05
    8.9566456154e-03    1.1165631250e+05
    8.9747514576e-03    1.1157607031e+05
    8.9928600937e-03    1.1149543750e+05
    9.0109808370e-03    1.1141347656e+05
    9.0291155502e-03    1.1133532031e+05
    9.0472688898e-03    1.1126353125e+05
    9.0654399246e-03    1.1119210156e+05
    9.0836230665e-03    1.1112700781e+05
    9.1018192470e-03    1.1106767969e+05
    9.1200266033e-03    1.1100369531e+05
    9.1382460669e-03    1.1094641406e+05
    9.1564757749e-03    1.1089419531e+05
    9.1747231781e-03    1.1084675000e+05
    9.1929892078e-03    1.1079683594e+05
    9.2112747952e-03    1.1074509375e+05
    9.2295790091e-03    1.1069394531e+05
    9.2479009181e-03    1.1063652344e+05
    9.2662386596e-03    1.1057819531e+05
    9.2845931649e-03    1.1051483594e+05
    9.3029672280e-03    1.1044152344e+05
    9.3213599175e-03    1.1037066406e+05
    9.3397712335e-03    1.1029153125e+05
    9.3582011759e-03    1.1021034375e+05
    9.3766497448e-03    1.1013768750e+05
    9.3951150775e-03    1.1005775000e+05
    9.4135999680e-03    1.0998572656e+05
    9.4321016222e-03    1.0991842969e+05
    9.4506228343e-03    1.0985810156e+05
    9.4691645354e-03    1.0980958594e+05
    9.4877239317e-03    1.0976347656e+05
    9.5063010231e-03    1.0973091406e+05
    9.5248948783e-03    1.0970180469e+05
    9.5435054973e-03    1.0967927344e+05
    9.5621328801e-03    1.0966749219e+05
    9.5807760954e-03    1.0965360156e+05
    9.5994332805e-03    1.0964937500e+05
    9.6181081608e-03    1.0964742969e+05
    9.6367979422e-03    1.0964803125e+05
    9.6555035561e-03    1.0964700000e+05
    9.6742231399e-03    1.0965008594e+05
    9.6929576248e-03    1.0964333594e+05
    9.7117051482e-03    1.0963572656e+05
    9.7304685041e-03    1.0962125000e+05
    9.7492448986e-03    1.0960208594e+05
    9.7680361941e-03    1.0957364844e+05
    9.7868405282e-03    1.0953447656e+05
    9.8056588322e-03    1.0948000781e+05
    9.8244920373e-03    1.0942321094e+05
    9.8433364183e-03    1.0934736719e+05
    9.8621929064e-03    1.0926462500e+05
    9.8810633644e-03    1.0916503906e+05
    9.8999459296e-03    1.0906703125e+05
    9.9188406020e-03    1.0895000000e+05
    9.9377483130e-03    1.0883083594e+05
    9.9566690624e-03    1.0869972656e+05
    9.9756028503e-03    1.0856410156e+05
    9.9945487455e-03    1.0842033594e+05
    1.0013507679e-02    1.0827547656e+05
    1.0032479651e-02    1.0812603906e+05
    1.0051463731e-02    1.0797590625e+05
    1.0070459917e-02    1.0782725781e+05
    1.0089469142e-02    1.0767941406e+05
    1.0108492337e-02    1.0753578906e+05
    1.0127528571e-02    1.0739483594e+05
    1.0146577843e-02    1.0726655469e+05
    1.0165639222e-02    1.0713932031e+05
    1.0184712708e-02    1.0702353125e+05
    1.0203798302e-02    1.0690468750e+05
    1.0222896002e-02    1.0679377344e+05
    1.0242006741e-02    1.0669796875e+05
    1.0261129588e-02    1.0660171875e+05
    1.0280264542e-02    1.0651339844e+05
    1.0299413465e-02    1.0642884375e+05
    1.0318575427e-02    1.0635464844e+05
    1.0337748565e-02    1.0628960156e+05
    1.0356934741e-02    1.0622563281e+05
    1.0376133956e-02    1.0617480469e+05
    1.0395346209e-02    1.0612982031e+05
    1.0414571501e-02    1.0609106250e+05
    1.0433809832e-02    1.0606310156e+05
    1.0453061201e-02    1.0604541406e+05
    1.0472324677e-02    1.0602743750e+05
    1.0491601191e-02    1.0601427344e+05
    1.0510892607e-02    1.0600514844e+05
    1.0530196130e-02    1.0599588281e+05
    1.0549513623e-02    1.0598841406e+05
    1.0568842292e-02    1.0596756250e+05
    1.0588183999e-02    1.0595075000e+05
    1.0607538745e-02    1.0593065625e+05
    1.0626907460e-02    1.0589894531e+05
    1.0646289214e-02    1.0587459375e+05
    1.0665684007e-02    1.0584609375e+05
    1.0685092770e-02    1.0581266406e+05
    1.0704516433e-02    1.0577614844e+05
    1.0723951273e-02    1.0573180469e+05
    1.0743400082e-02    1.0567940625e+05
    1.0762862861e-02    1.0562000781e+05
    1.0782338679e-02    1.0555152344e+05
    1.0801829398e-02    1.0547508594e+05
    1.0821334086e-02    1.0540110156e+05
    1.0840852745e-02    1.0530935156e+05
    1.0860386305e-02    1.0521981250e+05
    1.0879932903e-02    1.0511602344e+05
    1.0899493471e-02    1.0500952344e+05
    1.0919069871e-02    1.0491472656e+05
    1.0938662104e-02    1.0482428906e+05
    1.0958270170e-02    1.0474696094e+05
    1.0977892205e-02    1.0468659375e+05
    1.0997531936e-02    1.0463541406e+05
    1.1017187499e-02    1.0459678906e+05
    1.1036860757e-02    1.0457359375e+05
    1.1056551710e-02    1.0455802344e+05
    1.1076259427e-02    1.0454793750e+05
    1.1095987633e-02    1.0454150000e+05
    1.1115733534e-02    1.0453358594e+05
    1.1135498993e-02    1.0452583594e+05
    1.1155283079e-02    1.0451686719e+05
    1.1175086722e-02    1.0449764844e+05
    1.1194912717e-02    1.0447333594e+05
    1.1214758269e-02    1.0442972656e+05
    1.1234625243e-02    1.0437778906e+05
    1.1254511774e-02    1.0432150000e+05
    1.1274418794e-02    1.0426684375e+05
    1.1294347234e-02    1.0420259375e+05
    1.1314296164e-02    1.0414235156e+05
    1.1334266514e-02    1.0408066406e+05
    1.1354257353e-02    1.0401934375e+05
    1.1374268681e-02    1.0395452344e+05
    1.1394302361e-02    1.0389074219e+05
    1.1414355598e-02    1.0382746875e+05
    1.1434430256e-02    1.0375978906e+05
    1.1454525404e-02    1.0369137500e+05
    1.1474640109e-02    1.0361949219e+05
    1.1494777165e-02    1.0354762500e+05
    1.1514934711e-02    1.0346968750e+05
    1.1535113677e-02    1.0340238281e+05
    1.1555313133e-02    1.0333914844e+05
    1.1575534008e-02    1.0327210156e+05
    1.1595774442e-02    1.0321936719e+05
    1.1616035365e-02    1.0316497656e+05
    1.1636316776e-02    1.0312141406e+05
    1.1656619608e-02    1.0308474219e+05
    1.1676942930e-02    1.0305625000e+05
    1.1697287671e-02    1.0302784375e+05
    1.1717652902e-02    1.0300406250e+05
    1.1738038622e-02    1.0298089844e+05
    1.1758443899e-02    1.0295246094e+05
    1.1778870597e-02    1.0292040625e+05
    1.1799318716e-02    1.0288403906e+05
    1.1819788255e-02    1.0284891406e+05
    1.1840280145e-02    1.0281407031e+05
    1.1860790662e-02    1.0278200781e+05
    1.1881321669e-02    1.0276090625e+05
    1.1901874095e-02    1.0274316406e+05
    1.1922447011e-02    1.0272227344e+05
    1.1943042278e-02    1.0270368750e+05
    1.1963658035e-02    1.0268503906e+05
    1.1984295212e-02    1.0266824219e+05
    1.2004952878e-02    1.0265019531e+05
    1.2025631964e-02    1.0262796875e+05
    1.2046331540e-02    1.0260372656e+05
    1.2067052536e-02    1.0257943750e+05
    1.2087795883e-02    1.0255214844e+05
    1.2108558789e-02    1.0254527344e+05
    1.2129344046e-02    1.0255900781e+05
    1.2150149792e-02    1.0260587500e+05
    1.2170976959e-02    1.0268939844e+05
    1.2191825546e-02    1.0282511719e+05
    1.2212695554e-02    1.0301503906e+05
    1.2233586982e-02    1.0329428906e+05
    1.2254500762e-02    1.0367707031e+05
    1.2275436893e-02    1.0419213281e+05
    1.2296394445e-02    1.0486030469e+05
    1.2317374349e-02    1.0567896094e+05
    1.2338375673e-02    1.0664949219e+05
    1.2359398417e-02    1.0773819531e+05
    1.2380442582e-02    1.0889356250e+05
    1.2401508167e-02    1.1003399219e+05
    1.2422595173e-02    1.1108603906e+05
    1.2443703599e-02    1.1195950781e+05
    1.2464834377e-02    1.1259585156e+05
    1.2485986575e-02    1.1295530469e+05
    1.2507158332e-02    1.1303193750e+05
    1.2528351508e-02    1.1284613281e+05
    1.2549565174e-02    1.1244066406e+05
    1.2570801191e-02    1.1186725781e+05
    1.2592058629e-02    1.1117761719e+05
    1.2613337487e-02    1.1043621875e+05
    1.2634636834e-02    1.0969596094e+05
    1.2655957602e-02    1.0900736719e+05
    1.2677297927e-02    1.0840921094e+05
    1.2698660605e-02    1.0791528906e+05
    1.2720043771e-02    1.0752316406e+05
    1.2741449289e-02    1.0721200000e+05
    1.2762876227e-02    1.0692978906e+05
    1.2784325518e-02    1.0664208594e+05
    1.2805794366e-02    1.0632135156e+05
    1.2827285565e-02    1.0594414844e+05
    1.2848797254e-02    1.0550990625e+05
    1.2870330364e-02    1.0501636719e+05
    1.2891885825e-02    1.0448122656e+05
    1.2913462706e-02    1.0393881250e+05
    1.2935061008e-02    1.0340021875e+05
    1.2956679799e-02    1.0289678906e+05
    1.2978320010e-02    1.0244593750e+05
    1.2999981642e-02    1.0205771875e+05
    1.3021663763e-02    1.0173742969e+05
    1.3043368235e-02    1.0147610156e+05
    1.3065092266e-02    1.0125972656e+05
    1.3086837716e-02    1.0107771094e+05
    1.3108605519e-02    1.0092028125e+05
    1.3130392879e-02    1.0078518750e+05
    1.3152201660e-02    1.0066171875e+05
    1.3174032792e-02    1.0055146094e+05
    1.3195885345e-02    1.0044814844e+05
    1.3217759319e-02    1.0035012500e+05
    1.3239653781e-02    1.0025719531e+05
    1.3261569664e-02    1.0017411719e+05
    1.3283506967e-02    1.0010597656e+05
    1.3305463828e-02    1.0005066406e+05
    1.3327440247e-02    1.0000146094e+05
    1.3349435292e-02    9.9963242188e+04
    1.3371448033e-02    9.9921992188e+04
    1.3393475674e-02    9.9878273438e+04
    1.3415516354e-02    9.9822335938e+04
    1.3437564485e-02    9.9757398438e+04
    1.3459613547e-02    9.9678031250e+04
    1.3481658883e-02    9.9595164062e+04
    1.3503690250e-02    9.9514531250e+04
    1.3525702059e-02    9.9434351562e+04
    1.3547683135e-02    9.9368460938e+04
    1.3569628820e-02    9.9330312500e+04
    1.3591531664e-02    9.9323664062e+04
    1.3613392599e-02    9.9360968750e+04
    1.3635210693e-02    9.9437718750e+04
    1.3656994328e-02    9.9543695312e+04
    1.3678749092e-02    9.9672070312e+04
    1.3700488023e-02    9.9800195312e+04
    1.3722228818e-02    9.9925742188e+04
    1.3743981719e-02    1.0003864844e+05
    1.3765762560e-02    1.0013302344e+05
    1.3787578791e-02    1.0020787500e+05
    1.3809437864e-02    1.0026872656e+05
    1.3831341639e-02    1.0032568750e+05
    1.3853288256e-02    1.0037517969e+05
    1.3875273056e-02    1.0042914844e+05
    1.3897285797e-02    1.0049246875e+05
    1.3919321820e-02    1.0056028125e+05
    1.3941374607e-02    1.0063386719e+05
    1.3963440433e-02    1.0071193750e+05
    1.3985517435e-02    1.0078128906e+05
    1.4007603750e-02    1.0085194531e+05
    1.4029704034e-02    1.0091197656e+05
    1.4051820152e-02    1.0096378125e+05
    1.4073957689e-02    1.0099828125e+05
    1.4096121304e-02    1.0103060156e+05
    1.4118315652e-02    1.0104925000e+05
    1.4140545391e-02    1.0106297656e+05
    1.4162814245e-02    1.0107332031e+05
    1.4185124077e-02    1.0108311719e+05
    1.4207473956e-02    1.0110093750e+05
    1.4229862019e-02    1.0111746875e+05
    1.4252286404e-02    1.0113352344e+05
    1.4274741523e-02    1.0115055469e+05
    1.4297228307e-02    1.0117207031e+05
    1.4319745824e-02    1.0119339844e+05
    1.4342290349e-02    1.0121681250e+05
    1.4364863746e-02    1.0123691406e+05
    1.4387467876e-02    1.0125802344e+05
    1.4410103671e-02    1.0126847656e+05
    1.4432771131e-02    1.0128102344e+05
    1.4455472119e-02    1.0128914844e+05
    1.4478209428e-02    1.0130643750e+05
    1.4500979334e-02    1.0131318750e+05
    1.4523783699e-02    1.0131808594e+05
    1.4546621591e-02    1.0132278906e+05
    1.4569494873e-02    1.0133035156e+05
    1.4592399821e-02    1.0132910156e+05
    1.4615339227e-02    1.0132538281e+05
    1.4638305642e-02    1.0131314844e+05
    1.4661304653e-02    1.0129583594e+05
    1.4684336260e-02    1.0127435156e+05
    1.4707398601e-02    1.0124603906e+05
    1.4730494469e-02    1.0120222656e+05
    1.4753622934e-02    1.0115667969e+05
    1.4776783995e-02    1.0110025781e+05
    1.4799979515e-02    1.0103234375e+05
    1.4823205769e-02    1.0096378906e+05
    1.4846466482e-02    1.0089027344e+05
    1.4869757928e-02    1.0081578906e+05
    1.4893081971e-02    1.0072619531e+05
    1.4916437678e-02    1.0063688281e+05
    1.4939822257e-02    1.0053805469e+05
    1.4963239431e-02    1.0044639844e+05
    1.4986685477e-02    1.0035125000e+05
    1.5010161325e-02    1.0025475000e+05
    1.5033668838e-02    1.0016031250e+05
    1.5057205223e-02    1.0006236719e+05
    1.5080772340e-02    9.9980617188e+04
    1.5104367398e-02    9.9903914062e+04
    1.5127992257e-02    9.9831851562e+04
    1.5151646920e-02    9.9771039062e+04
    1.5175330453e-02    9.9711945312e+04
    1.5199041925e-02    9.9669718750e+04
    1.5222782269e-02    9.9643968750e+04
    1.5246548690e-02    9.9633882812e+04
    1.5270343982e-02    9.9625937500e+04
    1.5294168144e-02    9.9624835938e+04
    1.5318016522e-02    9.9633460938e+04
    1.5341891907e-02    9.9645976562e+04
    1.5365792438e-02    9.9660023438e+04
    1.5389721841e-02    9.9686023438e+04
    1.5413676389e-02    9.9706023438e+04
    1.5437657945e-02    9.9733054688e+04
    1.5461664647e-02    9.9762187500e+04
    1.5485695563e-02    9.9789648438e+04
    1.5509752557e-02    9.9813875000e+04
    1.5533835627e-02    9.9842562500e+04
    1.5557944775e-02    9.9867710938e+04
    1.5582079068e-02    9.9899429688e+04
    1.5606240369e-02    9.9927507812e+04
    1.5630424023e-02    9.9950054688e+04
    1.5654634684e-02    9.9975726562e+04
    1.5678871423e-02    9.9996398438e+04
    1.5703132376e-02    1.0001041406e+05
    1.5727419406e-02    1.0001028125e+05
    1.5751728788e-02    1.0001718750e+05
    1.5776060522e-02    1.0001621094e+05
    1.5800418332e-02    1.0001769531e+05
    1.5824800357e-02    1.0001134375e+05
    1.5849204734e-02    9.9996742188e+04
    1.5873633325e-02    9.9984148438e+04
    1.5898084268e-02    9.9973781250e+04
    1.5922557563e-02    9.9964531250e+04
    1.5947058797e-02    9.9961648438e+04
    1.5971582383e-02    9.9960648438e+04
    1.5996130183e-02    9.9967281250e+04
    1.6020702198e-02    9.9971414062e+04
    1.6045298427e-02    9.9979539062e+04
    1.6069920734e-02    9.9996335938e+04
    1.6094569117e-02    1.0001502344e+05
    1.6119243577e-02    1.0002917969e+05
    1.6143942252e-02    1.0005667969e+05
    1.6168667004e-02    1.0008349219e+05
    1.6193419695e-02    1.0010585156e+05
    1.6218200326e-02    1.0014077344e+05
    1.6243007034e-02    1.0017372656e+05
    1.6267839819e-02    1.0021971094e+05
    1.6292702407e-02    1.0026966406e+05
    1.6317596659e-02    1.0032566406e+05
    1.6342513263e-02    1.0038838281e+05
    1.6367461532e-02    1.0045227344e+05
    1.6392435879e-02    1.0052078906e+05
    1.6417443752e-02    1.0059409375e+05
    1.6442479566e-02    1.0066110156e+05
    1.6467543319e-02    1.0072071094e+05
    1.6492636874e-02    1.0077837500e+05
    1.6517756507e-02    1.0082965625e+05
    1.6542907804e-02    1.0087303906e+05
    1.6568088904e-02    1.0090730469e+05
    1.6593271866e-02    1.0093378906e+05
    1.6618426889e-02    1.0096116406e+05
    1.6643559560e-02    1.0098419531e+05
    1.6668669879e-02    1.0101053125e+05
    1.6693757847e-02    1.0103381250e+05
    1.6718825325e-02    1.0106214844e+05
    1.6743874177e-02    1.0109064844e+05
    1.6768900678e-02    1.0112933594e+05
    1.6793908551e-02    1.0116424219e+05
    1.6818899661e-02    1.0119999219e+05
    1.6843874007e-02    1.0123691406e+05
    1.6868829727e-02    1.0127672656e+05
    1.6893770546e-02    1.0132271875e+05
    1.6918692738e-02    1.0137458594e+05
    1.6943598166e-02    1.0142221094e+05
    1.6968490556e-02    1.0146909375e+05
    1.6993366182e-02    1.0151977344e+05
    1.7018226907e-02    1.0156787500e+05
    1.7043072730e-02    1.0161592969e+05
    1.7067901790e-02    1.0166664844e+05
    1.7092714086e-02    1.0172350000e+05
    1.7117511481e-02    1.0176788281e+05
    1.7142292112e-02    1.0181928906e+05
    1.7167057842e-02    1.0185050781e+05
    1.7191808671e-02    1.0189235156e+05
    1.7216544598e-02    1.0193155469e+05
    1.7241263762e-02    1.0195813281e+05
    1.7265968025e-02    1.0198875000e+05
    1.7290659249e-02    1.0201057031e+05
    1.7315333709e-02    1.0203797656e+05
    1.7339993268e-02    1.0206050781e+05
    1.7364639789e-02    1.0208057031e+05
    1.7389267683e-02    1.0209640625e+05
    1.7413880676e-02    1.0211510156e+05
    1.7438478768e-02    1.0213109375e+05
    1.7463061959e-02    1.0214096094e+05
    1.7487626523e-02    1.0214780469e+05
    1.7512176186e-02    1.0215584375e+05
    1.7536709085e-02    1.0215688281e+05
    1.7561223358e-02    1.0216028125e+05
    1.7585720867e-02    1.0216491406e+05
    1.7610201612e-02    1.0216467969e+05
    1.7634663731e-02    1.0216003125e+05
    1.7659107223e-02    1.0215453125e+05
    1.7683532089e-02    1.0215117969e+05
    1.7707940191e-02    1.0214646094e+05
    1.7732329667e-02    1.0215099219e+05
    1.7756698653e-02    1.0215563281e+05
    1.7781050876e-02    1.0215530469e+05
    1.7805384472e-02    1.0216453906e+05
    1.7829699442e-02    1.0217358594e+05
    1.7853999510e-02    1.0218896094e+05
    1.7878280953e-02    1.0220536719e+05
    1.7902545631e-02    1.0223361719e+05
    1.7926793545e-02    1.0225560156e+05
    1.7951028422e-02    1.0227697656e+05
    1.7975246534e-02    1.0230875781e+05
    1.7999447882e-02    1.0234087500e+05
    1.8023636192e-02    1.0238655469e+05
    1.8047811463e-02    1.0243641406e+05
    1.8071975559e-02    1.0249283594e+05
    1.8096126616e-02    1.0255609375e+05
    1.8120266497e-02    1.0262396875e+05
    1.8144397065e-02    1.0271063281e+05
    1.8168520182e-02    1.0280975000e+05
    1.8192630261e-02    1.0291761719e+05
    1.8216732889e-02    1.0303216406e+05
    1.8240824342e-02    1.0314377344e+05
    1.8264908344e-02    1.0325452344e+05
    1.8288983032e-02    1.0335513281e+05
    1.8313048407e-02    1.0343871094e+05
    1.8337102607e-02    1.0350546094e+05
    1.8361147493e-02    1.0354437500e+05
    1.8385183066e-02    1.0354802344e+05
    1.8409207463e-02    1.0352834375e+05
    1.8433224410e-02    1.0346292969e+05
    1.8457230181e-02    1.0336546875e+05
    1.8481226638e-02    1.0322608594e+05
    1.8505210057e-02    1.0304608594e+05
    1.8529184163e-02    1.0283821094e+05
    1.8553148955e-02    1.0260275000e+05
    1.8577100709e-02    1.0233897656e+05
    1.8601041287e-02    1.0207471094e+05
    1.8624972552e-02    1.0181621875e+05
    1.8648892641e-02    1.0156408594e+05
    1.8672801554e-02    1.0133312500e+05
    1.8696699291e-02    1.0113619531e+05
    1.8720587716e-02    1.0096449219e+05
    1.8744463101e-02    1.0082697656e+05
    1.8768329173e-02    1.0072625781e+05
    1.8792184070e-02    1.0065692969e+05
    1.8816027790e-02    1.0061041406e+05
    1.8839860335e-02    1.0057866406e+05
    1.8863683566e-02    1.0056085156e+05
    1.8887493759e-02    1.0055146094e+05
    1.8911294639e-02    1.0056452344e+05
    1.8935086206e-02    1.0058755469e+05
    1.8958866596e-02    1.0062781250e+05
    1.8982635811e-02    1.0066913281e+05
    1.9006397575e-02    1.0071190625e+05
    1.9030146301e-02    1.0075653125e+05
    1.9053885713e-02    1.0081059375e+05
    1.9077615812e-02    1.0086416406e+05
    1.9101334736e-02    1.0093014844e+05
    1.9125042483e-02    1.0098807031e+05
    1.9148740917e-02    1.0104130469e+05
    1.9172428176e-02    1.0109052344e+05
    1.9196104258e-02    1.0114428125e+05
    1.9219771028e-02    1.0118716406e+05
    1.9243424758e-02    1.0123231250e+05
    1.9267069176e-02    1.0128197656e+05
    1.9290700555e-02    1.0133696875e+05
    1.9314322621e-02    1.0139083594e+05
    1.9337931648e-02    1.0145435156e+05
    1.9361529499e-02    1.0151569531e+05
    1.9385114312e-02    1.0158515625e+05
    1.9408687949e-02    1.0165836719e+05
    1.9432250410e-02    1.0173685156e+05
    1.9455801696e-02    1.0180971094e+05
    1.9479339942e-02    1.0188403906e+05
    1.9502865151e-02    1.0195563281e+05
    1.9526379183e-02    1.0202233594e+05
    1.9549878314e-02    1.0209159375e+05
    1.9573366269e-02    1.0215056250e+05
    1.9596841186e-02    1.0220347656e+05
    1.9620303065e-02    1.0225089844e+05
    1.9643751904e-02    1.0229600000e+05
    1.9667187706e-02    1.0233930469e+05
    1.9690606743e-02    1.0237957031e+05
    1.9714014605e-02    1.0240882031e+05
    1.9737409428e-02    1.0244128906e+05
    1.9760791212e-02    1.0246227344e+05
    1.9784159958e-02    1.0247789844e+05
    1.9807513803e-02    1.0249442969e+05
    1.9830854610e-02    1.0249790625e+05
    1.9854182377e-02    1.0250735156e+05
    1.9877497107e-02    1.0250347656e+05
    1.9900798798e-02    1.0249591406e+05
    1.9924087450e-02    1.0249038281e+05
    1.9947361201e-02    1.0248177344e+05
    1.9970623776e-02    1.0247138281e+05
    1.9993871450e-02    1.0245744531e+05
    2.0017107949e-02    1.0244302344e+05
    2.0040329546e-02    1.0242655469e+05
    2.0063538104e-02    1.0241369531e+05
    2.0086731762e-02    1.0240017969e+05
    2.0109914243e-02    1.0239065625e+05
    2.0133081824e-02    1.0237558594e+05
    2.0156236365e-02    1.0235921094e+05
    2.0179376006e-02    1.0234103906e+05
    2.0202504471e-02    1.0232747656e+05
    2.0225618035e-02    1.0231175000e+05
    2.0248720422e-02    1.0229519531e+05
    2.0271807909e-02    1.0227844531e+05
    2.0294882357e-02    1.0226214844e+05
    2.0317947492e-02    1.0224997656e+05
    2.0340997726e-02    1.0223230469e+05
    2.0364036784e-02    1.0222225000e+05
    2.0387060940e-02    1.0221152344e+05
    2.0410073921e-02    1.0219706250e+05
    2.0433073863e-02    1.0218060156e+05
    2.0456060767e-02    1.0215935156e+05
    2.0479036495e-02    1.0213985156e+05
    2.0501999184e-02    1.0212460156e+05
    2.0524948835e-02    1.0211578125e+05
    2.0547885448e-02    1.0210321875e+05
    2.0570809022e-02    1.0209071875e+05
    2.0593719557e-02    1.0207418750e+05
    2.0616617054e-02    1.0206077344e+05
    2.0639499649e-02    1.0204282031e+05
    2.0662369207e-02    1.0202471094e+05
    2.0685223863e-02    1.0201289844e+05
    2.0708063617e-02    1.0200641406e+05
    2.0730890334e-02    1.0199310156e+05
    2.0753700286e-02    1.0197221094e+05
    2.0776495337e-02    1.0195924219e+05
    2.0799275488e-02    1.0194672656e+05
    2.0822042599e-02    1.0193364844e+05
    2.0844791085e-02    1.0192062500e+05
    2.0867524669e-02    1.0190812500e+05
    2.0890241489e-02    1.0189555469e+05
    2.0912945271e-02    1.0187821875e+05
    2.0935632288e-02    1.0186437500e+05
    2.0958306268e-02    1.0185546094e+05
    2.0980965346e-02    1.0184466406e+05
    2.1003607661e-02    1.0183321094e+05
    2.1026238799e-02    1.0182124219e+05
    2.1048855036e-02    1.0181499219e+05
    2.1071458235e-02    1.0180841406e+05
    2.1094048396e-02    1.0179683594e+05
    2.1116625518e-02    1.0179172656e+05
    2.1139191464e-02    1.0178236719e+05
    2.1161744371e-02    1.0177809375e+05
    2.1184286103e-02    1.0177358594e+05
    2.1206818521e-02    1.0176907031e+05
    2.1229337901e-02    1.0176699219e+05
    2.1251846105e-02    1.0176372656e+05
    2.1274344996e-02    1.0176037500e+05
    2.1296832711e-02    1.0175833594e+05
    2.1319312975e-02    1.0175133594e+05
    2.1341778338e-02    1.0174437500e+05
    2.1364232525e-02    1.0174241406e+05
    2.1386675537e-02    1.0174075000e+05
    2.1409107372e-02    1.0174010156e+05
    2.1431528032e-02    1.0173510156e+05
    2.1453931928e-02    1.0173686719e+05
    2.1476324648e-02    1.0173272656e+05
    2.1498700604e-02    1.0173858594e+05
    2.1521063522e-02    1.0173512500e+05
    2.1543409675e-02    1.0173135156e+05
    2.1565740928e-02    1.0172911719e+05
    2.1588053554e-02    1.0172675781e+05
    2.1610351279e-02    1.0172522656e+05
    2.1632634103e-02    1.0173085156e+05
    2.1654898301e-02    1.0173228906e+05
    2.1677147597e-02    1.0173216406e+05
    2.1699378267e-02    1.0172656250e+05
    2.1721594036e-02    1.0173089844e+05
    2.1743793041e-02    1.0173053125e+05
    2.1765975282e-02    1.0172908594e+05
    2.1788140759e-02    1.0172637500e+05
    2.1810289472e-02    1.0172664844e+05
    2.1832419559e-02    1.0172585156e+05
    2.1854531020e-02    1.0171989844e+05
    2.1876627579e-02    1.0171905469e+05
    2.1898705512e-02    1.0171360156e+05
    2.1920768544e-02    1.0171728906e+05
    2.1942811087e-02    1.0171647656e+05
    2.1964838728e-02    1.0171211719e+05
    2.1986849606e-02    1.0170934375e+05
    2.2008845583e-02    1.0170702344e+05
    2.2030822933e-02    1.0169947656e+05
    2.2052785382e-02    1.0169144531e+05
    2.2074732929e-02    1.0168760156e+05
    2.2096665576e-02    1.0168364844e+05
    2.2118583322e-02    1.0167937500e+05
    2.2140489891e-02    1.0167733594e+05
    2.2162377834e-02    1.0168481250e+05
    2.2184254602e-02    1.0168353906e+05
    2.2206118330e-02    1.0167938281e+05
    2.2227969021e-02    1.0167575000e+05
    2.2249806672e-02    1.0167581250e+05
    2.2271629423e-02    1.0167713281e+05
    2.2293440998e-02    1.0167692969e+05
    2.2315241396e-02    1.0167585156e+05
    2.2337028757e-02    1.0167558594e+05
    2.2358803079e-02    1.0167908594e+05
    2.2380566224e-02    1.0168319531e+05
    2.2402318195e-02    1.0168322656e+05
    2.2424057126e-02    1.0167321094e+05
    2.2445784882e-02    1.0167208594e+05
    2.2467501462e-02    1.0167139844e+05
    2.2489206865e-02    1.0167008594e+05
    2.2510899231e-02    1.0166760156e+05
    2.2532582283e-02    1.0166614844e+05
    2.2554252297e-02    1.0166108594e+05
    2.2575911134e-02    1.0165378906e+05
    2.2597560659e-02    1.0164828906e+05
    2.2619199008e-02    1.0163769531e+05
    2.2640828043e-02    1.0163378906e+05
    2.2662445903e-02    1.0162922656e+05
    2.2684050724e-02    1.0162452344e+05
    2.2705646232e-02    1.0162000781e+05
    2.2727232426e-02    1.0161188281e+05
    2.2748809308e-02    1.0160753906e+05
    2.2770375013e-02    1.0160321875e+05
    2.2791929543e-02    1.0160212500e+05
    2.2813472897e-02    1.0159789844e+05
    2.2835006937e-02    1.0159442969e+05
    2.2856531665e-02    1.0159103906e+05
    2.2878047079e-02    1.0158786719e+05
    2.2899549454e-02    1.0159442969e+05
    2.2921044379e-02    1.0159603906e+05
    2.2942528129e-02    1.0160097656e+05
    2.2964000702e-02    1.0160068750e+05
    2.2985465825e-02    1.0160060156e+05
    2.3006917909e-02    1.0160402344e+05
    2.3028360680e-02    1.0160578906e+05
    2.3049792275e-02    1.0160577344e+05
    2.3071214557e-02    1.0160411719e+05
    2.3092625663e-02    1.0160300781e+05
    2.3114029318e-02    1.0160244531e+05
    2.3135419935e-02    1.0159811719e+05
    2.3156799376e-02    1.0159150781e+05
    2.3178169504e-02    1.0158778906e+05
    2.3199530318e-02    1.0157427344e+05
    2.3220879957e-02    1.0156880469e+05
    2.3242218420e-02    1.0156118750e+05
    2.3263547570e-02    1.0155258594e+05
    2.3284865543e-02    1.0154238281e+05
    2.3306174204e-02    1.0153130469e+05
    2.3327469826e-02    1.0151830469e+05
    2.3348756135e-02    1.0150547656e+05
    2.3370031267e-02    1.0148859375e+05
    2.3391297087e-02    1.0147714844e+05
    2.3412553594e-02    1.0146821094e+05
    2.3433798924e-02    1.0146636719e+05
    2.3455033079e-02    1.0146033594e+05
    2.3476256058e-02    1.0145221094e+05
    2.3497469723e-02    1.0144950781e+05
    2.3518672213e-02    1.0144956250e+05
    2.3539865389e-02    1.0145092969e+05
    2.3561049253e-02    1.0145568750e+05
    2.3582221940e-02    1.0146753125e+05
    2.3603385314e-02    1.0147547656e+05
    2.3624535650e-02    1.0149403906e+05
    2.3645676672e-02    1.0150846875e+05
    2.3666808382e-02    1.0152081250e+05
    2.3687927052e-02    1.0154269531e+05
    2.3709038273e-02    1.0156514844e+05
    2.3730138317e-02    1.0159278906e+05
    2.3751227185e-02    1.0161736719e+05
    2.3772306740e-02    1.0163446094e+05
    2.3793375120e-02    1.0166090625e+05
    2.3814432323e-02    1.0169171094e+05
    2.3835480213e-02    1.0171471875e+05
    2.3856516927e-02    1.0174297656e+05
    2.3877544329e-02    1.0176850781e+05
    2.3898560554e-02    1.0179775781e+05
    2.3919565603e-02    1.0182725000e+05
    2.3940561339e-02    1.0185453906e+05
    2.3961545900e-02    1.0188127344e+05
    2.3982519284e-02    1.0191060156e+05
    2.4003483355e-02    1.0192966406e+05
    2.4024436250e-02    1.0195511719e+05
    2.4045377970e-02    1.0197664844e+05
    2.4066310376e-02    1.0199538281e+05
    2.4087233469e-02    1.0202333594e+05
    2.4108145386e-02    1.0204168750e+05
    2.4129044265e-02    1.0205952344e+05
    2.4149935693e-02    1.0206744531e+05
    2.4170814082e-02    1.0208377344e+05
    2.4191683158e-02    1.0209774219e+05
    2.4212542921e-02    1.0211042969e+05
    2.4233391508e-02    1.0212050000e+05
    2.4254228920e-02    1.0212478906e+05
    2.4275057018e-02    1.0212750781e+05
    2.4295873940e-02    1.0212380469e+05
    2.4316681549e-02    1.0211349219e+05
    2.4337477982e-02    1.0210033594e+05
    2.4358265102e-02    1.0209410156e+05
    2.4379042909e-02    1.0207222656e+05
    2.4399809539e-02    1.0204753906e+05
    2.4420566857e-02    1.0201775781e+05
    2.4441312999e-02    1.0198947656e+05
    2.4462047964e-02    1.0195214844e+05
    2.4482775480e-02    1.0190230469e+05
    2.4503491819e-02    1.0185710156e+05
    2.4524198845e-02    1.0181928906e+05
    2.4544894695e-02    1.0176972656e+05
    2.4565581232e-02    1.0172753906e+05
    2.4586258456e-02    1.0168432031e+05
    2.4606924504e-02    1.0164914844e+05
    2.4627581239e-02    1.0162227344e+05
    2.4648228660e-02    1.0160088281e+05
    2.4668866768e-02    1.0158822656e+05
    2.4689495564e-02    1.0158046094e+05
    2.4710113183e-02    1.0158502344e+05
    2.4730721489e-02    1.0160285156e+05
    2.4751318619e-02    1.0162712500e+05
    2.4771906435e-02    1.0165405469e+05
    2.4792486802e-02    1.0168397656e+05
    2.4813055992e-02    1.0171558594e+05
    2.4833614007e-02    1.0174560156e+05
    2.4854162708e-02    1.0177390625e+05
    2.4874702096e-02    1.0180958594e+05
    2.4895232171e-02    1.0183803125e+05
    2.4915752932e-02    1.0186866406e+05
    2.4936262518e-02    1.0189985156e+05
    2.4956764653e-02    1.0192310156e+05
    2.4977253750e-02    1.0194808594e+05
    2.4997735396e-02    1.0196350000e+05
    2.5018205866e-02    1.0197883594e+05
    2.5038668886e-02    1.0199388281e+05
    2.5059120730e-02    1.0200739844e+05
    2.5079563260e-02    1.0202228125e+05
    2.5099996477e-02    1.0203435156e+05
    2.5120420381e-02    1.0203825781e+05
    2.5140833110e-02    1.0205071094e+05
    2.5161236525e-02    1.0205275781e+05
    2.5181630626e-02    1.0206359375e+05
    2.5202017277e-02    1.0207527344e+05
    2.5222390890e-02    1.0208561719e+05
    2.5242757052e-02    1.0208760156e+05
    2.5263112038e-02    1.0209858594e+05
    2.5283459574e-02    1.0211112500e+05
    2.5303795934e-02    1.0211296875e+05
    2.5324124843e-02    1.0212412500e+05
    2.5344440714e-02    1.0212907031e+05
    2.5364749134e-02    1.0213378125e+05
    2.5385048240e-02    1.0214262500e+05
    2.5405339897e-02    1.0214296875e+05
    2.5425618514e-02    1.0215190625e+05
    2.5445887819e-02    1.0214967969e+05
    2.5466147810e-02    1.0214569531e+05
    2.5486400351e-02    1.0214171094e+05
    2.5506639853e-02    1.0213135156e+05
    2.5526873767e-02    1.0212708594e+05
    2.5547094643e-02    1.0212200000e+05
    2.5567308068e-02    1.0211403906e+05
    2.5587510318e-02    1.0211521875e+05
    2.5607703254e-02    1.0210660156e+05
    2.5627886876e-02    1.0209647656e+05
    2.5648061186e-02    1.0209293750e+05
    2.5668226182e-02    1.0208040625e+05
    2.5688380003e-02    1.0206739844e+05
    2.5708526373e-02    1.0204994531e+05
    2.5728661567e-02    1.0203614844e+05
    2.5748789310e-02    1.0202525781e+05
    2.5768904015e-02    1.0201272656e+05
    2.5789011270e-02    1.0200589844e+05
    2.5809109211e-02    1.0199682031e+05
    2.5829195976e-02    1.0199125000e+05
    2.5849273428e-02    1.0198436719e+05
    2.5869343430e-02    1.0197385156e+05
    2.5889402255e-02    1.0196164844e+05
    2.5909451768e-02    1.0195389844e+05
    2.5929493830e-02    1.0194653125e+05
    2.5949522853e-02    1.0194030469e+05
    2.5969544426e-02    1.0193261719e+05
    2.5989556685e-02    1.0192759375e+05
    2.6009559631e-02    1.0192646875e+05
    2.6029553264e-02    1.0192746875e+05
    2.6049537584e-02    1.0192571094e+05
    2.6069512591e-02    1.0193092969e+05
    2.6089478284e-02    1.0193230469e+05
    2.6109432802e-02    1.0193128906e+05
    2.6129379869e-02    1.0193644531e+05
    2.6149315760e-02    1.0194021875e+05
    2.6169244200e-02    1.0194762500e+05
    2.6189163327e-02    1.0195603906e+05
    2.6209073141e-02    1.0196352344e+05
    2.6228975505e-02    1.0197188281e+05
    2.6248866692e-02    1.0198082031e+05
    2.6268748567e-02    1.0198928125e+05
    2.6288621128e-02    1.0199406250e+05
    2.6308484375e-02    1.0199811719e+05
    2.6328338310e-02    1.0201118750e+05
    2.6348184794e-02    1.0201550781e+05
    2.6368021965e-02    1.0202477344e+05
    2.6387847960e-02    1.0203359375e+05
    2.6407664642e-02    1.0203766406e+05
    2.6427472010e-02    1.0203518750e+05
    2.6447271928e-02    1.0203685156e+05
    2.6467062533e-02    1.0203696094e+05
    2.6486843824e-02    1.0203802344e+05
    2.6506617665e-02    1.0203878906e+05
    2.6526380330e-02    1.0203789844e+05
    2.6546133682e-02    1.0203515625e+05
    2.6565877721e-02    1.0202291406e+05
    2.6585612446e-02    1.0201791406e+05
    2.6605339721e-02    1.0200822656e+05
    2.6625057682e-02    1.0199896094e+05
    2.6644766331e-02    1.0199265625e+05
    2.6664465666e-02    1.0198581250e+05
    2.6684155688e-02    1.0197959375e+05
    2.6703836396e-02    1.0197266406e+05
    2.6723509654e-02    1.0195578125e+05
    2.6743173599e-02    1.0194908594e+05
    2.6762828231e-02    1.0193705469e+05
    2.6782475412e-02    1.0192996094e+05
    2.6802113280e-02    1.0192269531e+05
    2.6821739972e-02    1.0191674219e+05
    2.6841359213e-02    1.0191700781e+05
    2.6860967278e-02    1.0191746094e+05
    2.6880569756e-02    1.0190914844e+05
    2.6900164783e-02    1.0190708594e+05
    2.6919748634e-02    1.0191605469e+05
    2.6939325035e-02    1.0191665625e+05
    2.6958892122e-02    1.0192605469e+05
    2.6978449896e-02    1.0193046875e+05
    2.6997998357e-02    1.0193447656e+05
    2.7017539367e-02    1.0194846094e+05
    2.7037071064e-02    1.0195228906e+05
    2.7056595311e-02    1.0195796094e+05
    2.7076110244e-02    1.0196722656e+05
    2.7095617726e-02    1.0197783594e+05
    2.7115115896e-02    1.0198439844e+05
    2.7134604752e-02    1.0199562500e+05
    2.7154086158e-02    1.0200031250e+05
    2.7173558250e-02    1.0200634375e+05
    2.7193021029e-02    1.0201240625e+05
    2.7212476358e-02    1.0201721094e+05
    2.7231922373e-02    1.0201925000e+05
    2.7251357213e-02    1.0202209375e+05
    2.7270786464e-02    1.0201634375e+05
    2.7290204540e-02    1.0201687500e+05
    2.7309613302e-02    1.0201421094e+05
    2.7329014614e-02    1.0201449219e+05
    2.7348404750e-02    1.0201403906e+05
    2.7367785573e-02    1.0201330469e+05
    2.7387158945e-02    1.0200763281e+05
    2.7406521142e-02    1.0200632031e+05
    2.7425874025e-02    1.0200525781e+05
    2.7445219457e-02    1.0200497656e+05
    2.7464553714e-02    1.0200055469e+05
    2.7483878657e-02    1.0200037500e+05
    2.7503194287e-02    1.0199768750e+05
    2.7522502467e-02    1.0199685156e+05
    2.7541799471e-02    1.0200068750e+05
    2.7561087161e-02    1.0200683594e+05
    2.7580365539e-02    1.0200852344e+05
    2.7599634603e-02    1.0201014844e+05
    2.7618894354e-02    1.0201784375e+05
    2.7638144791e-02    1.0202078125e+05
    2.7657385916e-02    1.0202571094e+05
    2.7676619589e-02    1.0202967969e+05
    2.7695843950e-02    1.0203544531e+05
    2.7715058997e-02    1.0203899219e+05
    2.7734262869e-02    1.0204160156e+05
    2.7753459290e-02    1.0204553906e+05
    2.7772648260e-02    1.0204858594e+05
    2.7791827917e-02    1.0205653906e+05
    2.7810998261e-02    1.0206453125e+05
    2.7830159292e-02    1.0206800000e+05
    2.7849311009e-02    1.0206671094e+05
    2.7868455276e-02    1.0206380469e+05
    2.7887590230e-02    1.0206549219e+05
    2.7906717733e-02    1.0206821094e+05
    2.7925835922e-02    1.0207077344e+05
    2.7944946662e-02    1.0206953906e+05
    2.7964048088e-02    1.0207091406e+05
    2.7983140200e-02    1.0206690625e+05
    2.8002224863e-02    1.0206772656e+05
    2.8021300212e-02    1.0206789844e+05
    2.8040368110e-02    1.0206789844e+05
    2.8059426695e-02    1.0206877344e+05
    2.8078475967e-02    1.0206291406e+05
    2.8097519651e-02    1.0206258594e+05
    2.8116554022e-02    1.0206260156e+05
    2.8135580942e-02    1.0206246875e+05
    2.8154598549e-02    1.0206216406e+05
    2.8173606843e-02    1.0205703125e+05
    2.8192607686e-02    1.0205771094e+05
    2.8211599216e-02    1.0206147656e+05
    2.8230583295e-02    1.0206071094e+05
    2.8249559924e-02    1.0206071094e+05
    2.8268527240e-02    1.0206189844e+05
    2.8287487105e-02    1.0206310156e+05
    2.8306435794e-02    1.0206308594e+05
    2.8325378895e-02    1.0206428906e+05
    2.8344312683e-02    1.0206544531e+05
    2.8363237157e-02    1.0206442969e+05
    2.8382156044e-02    1.0206444531e+05
    2.8401065618e-02    1.0206452344e+05
    2.8419965878e-02    1.0206478906e+05
    2.8438858688e-02    1.0206649219e+05
    2.8457742184e-02    1.0206738281e+05
    2.8476616368e-02    1.0206850781e+05
    2.8495483100e-02    1.0207331250e+05
    2.8514338657e-02    1.0207530469e+05
    2.8533160686e-02    1.0207831250e+05
    2.8551930562e-02    1.0207635156e+05
    2.8570635244e-02    1.0207653125e+05
    2.8589271009e-02    1.0207887500e+05
    2.8607837856e-02    1.0207996875e+05
    2.8626350686e-02    1.0207986719e+05
    2.8644818813e-02    1.0208090625e+05
    2.8663259000e-02    1.0208391406e+05
    2.8681686148e-02    1.0208452344e+05
    2.8700113297e-02    1.0208171094e+05
    2.8718546033e-02    1.0208525000e+05
    2.8736986220e-02    1.0208658594e+05
    2.8755431995e-02    1.0208733594e+05
    2.8773877770e-02    1.0208931250e+05
    2.8792314231e-02    1.0209034375e+05
    2.8810730204e-02    1.0209147656e+05
    2.8829116374e-02    1.0209283594e+05
    2.8847465292e-02    1.0209910156e+05
    2.8865773231e-02    1.0209909375e+05
    2.8884036466e-02    1.0209728906e+05
    2.8902258724e-02    1.0209884375e+05
    2.8920443729e-02    1.0209968750e+05
    2.8938598931e-02    1.0209983594e+05
    2.8956729919e-02    1.0210207031e+05
    2.8974846005e-02    1.0210190625e+05
    2.8992949054e-02    1.0210222656e+05
    2.9011042789e-02    1.0210233594e+05
    2.9029129073e-02    1.0209834375e+05
    2.9047204182e-02    1.0209766406e+05
    2.9065268114e-02    1.0209837500e+05
    2.9083315283e-02    1.0209802344e+05
    2.9101338238e-02    1.0209764844e+05
    2.9119335115e-02    1.0209503906e+05
    2.9137304053e-02    1.0209533594e+05
    2.9155241325e-02    1.0209557031e+05
    2.9173148796e-02    1.0210402344e+05
    2.9191024601e-02    1.0210238281e+05
    2.9208874330e-02    1.0209946875e+05
    2.9226697981e-02    1.0209778906e+05
    2.9244501144e-02    1.0210115625e+05
    2.9262285680e-02    1.0210457031e+05
    2.9280053452e-02    1.0210062500e+05
    2.9297806323e-02    1.0210003906e+05
    2.9315544292e-02    1.0210772656e+05
    2.9333265498e-02    1.0210622656e+05
    2.9350971803e-02    1.0210341406e+05
    2.9368655756e-02    1.0210852344e+05
    2.9386319220e-02    1.0210924219e+05
    2.9403960332e-02    1.0211005469e+05
    2.9421577230e-02    1.0210603906e+05
    2.9439168051e-02    1.0210683594e+05
    2.9456734657e-02    1.0211741406e+05
    2.9474277049e-02    1.0211137500e+05
    2.9491795227e-02    1.0210913281e+05
    2.9509292915e-02    1.0211215625e+05
    2.9526771978e-02    1.0211983594e+05
    2.9544232413e-02    1.0212081250e+05
    2.9561674222e-02    1.0212166406e+05
    2.9579099268e-02    1.0211318750e+05
    2.9596509412e-02    1.0211391406e+05
    2.9613900930e-02    1.0212399219e+05
    2.9631273821e-02    1.0212612500e+05
    2.9648626223e-02    1.0212605469e+05
    2.9665958136e-02    1.0212710156e+05
    2.9683271423e-02    1.0212808594e+05
    2.9700560495e-02    1.0212565625e+05
    2.9717829078e-02    1.0213108594e+05
    2.9735075310e-02    1.0213097656e+05
    2.9752301052e-02    1.0213205469e+05
    2.9769508168e-02    1.0213217969e+05
    2.9786696658e-02    1.0213503125e+05
    2.9803866521e-02    1.0214613281e+05
    2.9821017757e-02    1.0214575781e+05
    2.9838152230e-02    1.0214192969e+05
    2.9855269939e-02    1.0214367969e+05
    2.9872370884e-02    1.0214427344e+05
    2.9889453202e-02    1.0214708594e+05
    2.9906518757e-02    1.0214878125e+05
    2.9923565686e-02    1.0214941406e+05
    2.9940593988e-02    1.0215128906e+05
    2.9957601801e-02    1.0215433594e+05
    2.9974590987e-02    1.0215503906e+05
    2.9991561547e-02    1.0215675000e+05
    3.0008511618e-02    1.0215946875e+05
    3.0025444925e-02    1.0216094531e+05
    3.0042361468e-02    1.0216224219e+05
    3.0059259385e-02    1.0216111719e+05
    3.0076142401e-02    1.0215502344e+05
    3.0093006790e-02    1.0215572656e+05
    3.0109854415e-02    1.0215524219e+05
    3.0126683414e-02    1.0215708594e+05
    3.0143497512e-02    1.0215559375e+05
    3.0160292983e-02    1.0215863281e+05
    3.0177071691e-02    1.0215811719e+05
    3.0193833634e-02    1.0215903125e+05
    3.0210576952e-02    1.0214874219e+05
    3.0227303505e-02    1.0214918750e+05
    3.0244011432e-02    1.0214867969e+05
    3.0260702595e-02    1.0213966406e+05
    3.0277376994e-02    1.0213596094e+05
    3.0294034630e-02    1.0213036719e+05
    3.0310675502e-02    1.0212322656e+05
    3.0327299610e-02    1.0211564844e+05
    3.0343905091e-02    1.0210643750e+05
    3.0360495672e-02    1.0210346094e+05
    3.0377071351e-02    1.0210041406e+05
    3.0393628404e-02    1.0209672656e+05
    3.0410168692e-02    1.0209228906e+05
    3.0426690355e-02    1.0207853125e+05
    3.0443195254e-02    1.0207325781e+05
    3.0459685251e-02    1.0207027344e+05
    3.0476156622e-02    1.0206621094e+05
    3.0492611229e-02    1.0206228906e+05
    3.0509050936e-02    1.0206185156e+05
    3.0525473878e-02    1.0205586719e+05
    3.0541881919e-02    1.0205803125e+05
    3.0558273196e-02    1.0205203125e+05
    3.0574647710e-02    1.0205403125e+05
    3.0591005459e-02    1.0205166406e+05
    3.0607348308e-02    1.0204715625e+05
    3.0623674393e-02    1.0204408594e+05
    3.0639985576e-02    1.0205085156e+05
    3.0656279996e-02    1.0205285156e+05
    3.0672557652e-02    1.0206143750e+05
    3.0688818544e-02    1.0207214844e+05
    3.0705062672e-02    1.0208024219e+05
    3.0721291900e-02    1.0209018750e+05
    3.0737506226e-02    1.0209603906e+05
    3.0753703788e-02    1.0210471094e+05
    3.0769886449e-02    1.0210771094e+05
    3.0786054209e-02    1.0211087500e+05
    3.0802207068e-02    1.0211427344e+05
    3.0818343163e-02    1.0212705469e+05
    3.0834466219e-02    1.0213102344e+05
    3.0850572512e-02    1.0213403906e+05
    3.0866663903e-02    1.0214075000e+05
    3.0882738531e-02    1.0215149219e+05
    3.0898798257e-02    1.0214858594e+05
    3.0914843082e-02    1.0215172656e+05
    3.0930871144e-02    1.0215589844e+05
    3.0946886167e-02    1.0215988281e+05
    3.0962884426e-02    1.0216369531e+05
    3.0978867784e-02    1.0216722656e+05
    3.0994836241e-02    1.0216175781e+05
    3.1010789797e-02    1.0216396094e+05
    3.1026728451e-02    1.0216650000e+05
    3.1042650342e-02    1.0215968750e+05
    3.1058559194e-02    1.0216180469e+05
    3.1074455008e-02    1.0216387500e+05
    3.1090334058e-02    1.0216696094e+05
    3.1106200069e-02    1.0216755469e+05
    3.1122051179e-02    1.0216083594e+05
    3.1137887388e-02    1.0216178906e+05
    3.1153710559e-02    1.0215667969e+05
    3.1169516966e-02    1.0215488281e+05
    3.1185310334e-02    1.0215478906e+05
    3.1201090664e-02    1.0215478125e+05
    3.1216854230e-02    1.0216585156e+05
    3.1232602894e-02    1.0216775000e+05
    3.1248336658e-02    1.0215803906e+05
    3.1264055520e-02    1.0215833594e+05
    3.1279761344e-02    1.0215818750e+05
    3.1295452267e-02    1.0214947656e+05
    3.1311132014e-02    1.0214597656e+05
    3.1326796860e-02    1.0213756250e+05
    3.1342446804e-02    1.0213583594e+05
    3.1358085573e-02    1.0213366406e+05
    3.1373709440e-02    1.0213300781e+05
    3.1389318407e-02    1.0214138281e+05
    3.1404916197e-02    1.0214212500e+05
    3.1420499086e-02    1.0214196094e+05
    3.1436067075e-02    1.0214277344e+05
    3.1451620162e-02    1.0213768750e+05
    3.1467158347e-02    1.0213158594e+05
    3.1482685357e-02    1.0213000781e+05
    3.1498193741e-02    1.0213710156e+05
    3.1513694674e-02    1.0213735156e+05
    3.1529176980e-02    1.0213661719e+05
    3.1544648111e-02    1.0213488281e+05
    3.1560108066e-02    1.0213441406e+05
    3.1575553119e-02    1.0213822656e+05
    3.1590986997e-02    1.0213766406e+05
    3.1606405973e-02    1.0214060156e+05
    3.1621813774e-02    1.0214364844e+05
    3.1637206674e-02    1.0214389844e+05
    3.1652588397e-02    1.0214409375e+05
    3.1667951494e-02    1.0214056250e+05
    3.1683307141e-02    1.0213333594e+05
    3.1698647887e-02    1.0213147656e+05
    3.1713977456e-02    1.0213065625e+05
    3.1729292125e-02    1.0212866406e+05
    3.1744595617e-02    1.0212777344e+05
    3.1759884208e-02    1.0212461719e+05
    3.1775161624e-02    1.0212600000e+05
    3.1790427864e-02    1.0212285156e+05
    3.1805675477e-02    1.0211965625e+05
    3.1820915639e-02    1.0211853906e+05
    3.1836140901e-02    1.0211257031e+05
    3.1851354986e-02    1.0210991406e+05
    3.1866557896e-02    1.0211287500e+05
    3.1881745905e-02    1.0210913281e+05
    3.1896922737e-02    1.0211356250e+05
    3.1912088394e-02    1.0211461719e+05
    3.1927239150e-02    1.0211352344e+05
    3.1942378730e-02    1.0211366406e+05
    3.1957507133e-02    1.0211160156e+05
    3.1972620636e-02    1.0211075781e+05
    3.1987726688e-02    1.0211006250e+05
    3.2002814114e-02    1.0210957031e+05
    3.2017890364e-02    1.0211046094e+05
    3.2032959163e-02    1.0211971094e+05
    3.2048013061e-02    1.0211991406e+05
    3.2063052058e-02    1.0211434375e+05
    3.2078083605e-02    1.0211207031e+05
    3.2093103975e-02    1.0211221094e+05
    3.2108109444e-02    1.0211933594e+05
    3.2123107463e-02    1.0212214844e+05
    3.2138090581e-02    1.0212268750e+05
    3.2153062522e-02    1.0211859375e+05
    3.2168023288e-02    1.0211903125e+05
    3.2182972878e-02    1.0212424219e+05
    3.2197911292e-02    1.0212825000e+05
    3.2212834805e-02    1.0212789844e+05
    3.2227750868e-02    1.0213005469e+05
    3.2242652029e-02    1.0213138281e+05
    3.2257542014e-02    1.0214210156e+05
    3.2272424549e-02    1.0214391406e+05
    3.2287292182e-02    1.0214460156e+05
    3.2302148640e-02    1.0214627344e+05
    3.2316997647e-02    1.0213958594e+05
    3.2331831753e-02    1.0213949219e+05
    3.2346658409e-02    1.0214037500e+05
    3.2361470163e-02    1.0214172656e+05
    3.2376270741e-02    1.0214190625e+05
    3.2391063869e-02    1.0214258594e+05
    3.2405842096e-02    1.0214316406e+05
    3.2420612872e-02    1.0214369531e+05
    3.2435368747e-02    1.0214193750e+05
    3.2450113446e-02    1.0213952344e+05
    3.2464850694e-02    1.0213975781e+05
    3.2479573041e-02    1.0214035156e+05
    3.2494287938e-02    1.0214569531e+05
    3.2508991659e-02    1.0214581250e+05
    3.2523684204e-02    1.0214643750e+05
    3.2538365573e-02    1.0214690625e+05
    3.2553035766e-02    1.0214606250e+05
    3.2567698509e-02    1.0214171875e+05
    3.2582346350e-02    1.0213646094e+05
    3.2596986741e-02    1.0213697656e+05
    3.2611619681e-02    1.0213628125e+05
    3.2626237720e-02    1.0213671094e+05
    3.2640848309e-02    1.0213661719e+05
    3.2655447721e-02    1.0213655469e+05
    3.2670035958e-02    1.0213659375e+05
    3.2684613019e-02    1.0213667969e+05
    3.2699178904e-02    1.0213619531e+05
    3.2713737339e-02    1.0213683594e+05
    3.2728284597e-02    1.0213674219e+05
    3.2742820680e-02    1.0213758594e+05
    3.2757349312e-02    1.0213260156e+05
    3.2771866769e-02    1.0212777344e+05
    3.2786373049e-02    1.0212759375e+05
    3.2800871879e-02    1.0212689844e+05
    3.2815355808e-02    1.0213197656e+05
    3.2829832286e-02    1.0213384375e+05
    3.2844301313e-02    1.0213333594e+05
    3.2858755440e-02    1.0212824219e+05
    3.2873202115e-02    1.0212356250e+05
    3.2887637615e-02    1.0212235156e+05
    3.2902065665e-02    1.0212638281e+05
    3.2916482538e-02    1.0212571094e+05
    3.2930891961e-02    1.0212494531e+05
    3.2945290208e-02    1.0211942969e+05
    3.2959677279e-02    1.0211868750e+05
    3.2974056900e-02    1.0212082031e+05
    3.2988425344e-02    1.0211846094e+05
    3.3002786338e-02    1.0211781250e+05
    3.3017136157e-02    1.0211722656e+05
    3.3031478524e-02    1.0211675781e+05
    3.3045809716e-02    1.0211866406e+05
    3.3060129732e-02    1.0211825000e+05
    3.3074442297e-02    1.0211542969e+05
    3.3088747412e-02    1.0211485156e+05
    3.3103041351e-02    1.0211427344e+05
    3.3117324114e-02    1.0211415625e+05
    3.3131599426e-02    1.0211217969e+05
    3.3145863563e-02    1.0211127344e+05
    3.3160120249e-02    1.0211025000e+05
    3.3174365759e-02    1.0210978906e+05
    3.3188603818e-02    1.0210877344e+05
    3.3202830702e-02    1.0210652344e+05
    3.3217050135e-02    1.0210310156e+05
    3.3231258392e-02    1.0210181250e+05
    3.3245459199e-02    1.0210337500e+05
    3.3259648830e-02    1.0210272656e+05
    3.3273831010e-02    1.0210164844e+05
    3.3288005739e-02    1.0209953906e+05
    3.3302169293e-02    1.0209985156e+05
    3.3316325396e-02    1.0209910156e+05
    3.3330474049e-02    1.0209842969e+05
    3.3344611526e-02    1.0209897656e+05
    3.3358741552e-02    1.0209839844e+05
    3.3372864127e-02    1.0209787500e+05
    3.3386975527e-02    1.0209738281e+05
    3.3401079476e-02    1.0209683594e+05
    3.3415172249e-02    1.0209739844e+05
    3.3429257572e-02    1.0209671094e+05
    3.3443335444e-02    1.0209590625e+05
    3.3457405865e-02    1.0209035156e+05
    3.3471468836e-02    1.0208928125e+05
    3.3485524356e-02    1.0208485156e+05
    3.3499568701e-02    1.0208677344e+05
    3.3513605595e-02    1.0209100000e+05
    3.3527631313e-02    1.0209031250e+05
    3.3541653305e-02    1.0208853125e+05
    3.3555664122e-02    1.0208788281e+05
    3.3569667488e-02    1.0208712500e+05
    3.3583663404e-02    1.0208178906e+05
    3.3597648144e-02    1.0207962500e+05
    3.3611625433e-02    1.0207797656e+05
    3.3625595272e-02    1.0208346094e+05
    3.3639557660e-02    1.0208021094e+05
    3.3653512597e-02    1.0207691406e+05
    3.3667460084e-02    1.0207121875e+05
    3.3681396395e-02    1.0207241406e+05
    3.3695328981e-02    1.0207361719e+05
    3.3709254116e-02    1.0207699219e+05
    3.3723168075e-02    1.0207111719e+05
    3.3737078309e-02    1.0206477344e+05
    3.3750977367e-02    1.0206281250e+05
    3.3764872700e-02    1.0206256250e+05
    3.3778760582e-02    1.0206121094e+05
    3.3792637289e-02    1.0205983594e+05
    3.3806510270e-02    1.0205964844e+05
    3.3820372075e-02    1.0205818750e+05
    3.3834230155e-02    1.0205611719e+05
    3.3848077059e-02    1.0205225781e+05
    3.3861916512e-02    1.0204997656e+05
    3.3875752240e-02    1.0205050000e+05
    3.3889576793e-02    1.0204815625e+05
    3.3903393894e-02    1.0204458594e+05
    3.3917203546e-02    1.0204511719e+05
    3.3931009471e-02    1.0204214844e+05
    3.3944804221e-02    1.0204140625e+05
    3.3958595246e-02    1.0203899219e+05
    3.3972378820e-02    1.0203777344e+05
    3.3986151218e-02    1.0203606250e+05
    3.3999919891e-02    1.0203438281e+05
    3.4013681114e-02    1.0203258594e+05
    3.4027434886e-02    1.0203062500e+05
    3.4041177481e-02    1.0202921875e+05
    3.4054916352e-02    1.0202662500e+05
    3.4068647772e-02    1.0202235156e+05
    3.4082375467e-02    1.0202141406e+05
    3.4096091986e-02    1.0201827344e+05
    3.4109804779e-02    1.0201359375e+05
    3.4123510122e-02    1.0201466406e+05
    3.4137208015e-02    1.0200822656e+05
    3.4150898457e-02    1.0201350781e+05
    3.4164581448e-02    1.0201253906e+05
    3.4178260714e-02    1.0201047656e+05
    3.4191932529e-02    1.0200953906e+05
    3.4205596894e-02    1.0199888281e+05
    3.4219253808e-02    1.0200657031e+05
    3.4232903272e-02    1.0200505469e+05
    3.4246545285e-02    1.0200400781e+05
    3.4260183573e-02    1.0200003125e+05
    3.4273810685e-02    1.0199485156e+05
    3.4287434071e-02    1.0199821094e+05
    3.4301050007e-02    1.0199578125e+05
    3.4314658493e-02    1.0199049219e+05
    3.4328263253e-02    1.0198627344e+05
    3.4341860563e-02    1.0198650781e+05
    3.4355450422e-02    1.0197760156e+05
    3.4369036555e-02    1.0197958594e+05
    3.4382611513e-02    1.0198294531e+05
    3.4396182746e-02    1.0198111719e+05
    3.4409742802e-02    1.0197013281e+05
    3.4423299134e-02    1.0196832031e+05
    3.4436848015e-02    1.0196896875e+05
    3.4450393170e-02    1.0197536719e+05
    3.4463927150e-02    1.0196475000e+05
    3.4477461129e-02    1.0196322656e+05
    3.4490987659e-02    1.0196639844e+05
    3.4504506737e-02    1.0196709375e+05
    3.4518022090e-02    1.0195867969e+05
    3.4531529993e-02    1.0195708594e+05
    3.4545030445e-02    1.0195778906e+05
    3.4558523446e-02    1.0195960156e+05
    3.4572008997e-02    1.0195444531e+05
    3.4585487098e-02    1.0195152344e+05
    3.4598957747e-02    1.0194921875e+05
    3.4612424672e-02    1.0194810156e+05
    3.4625884145e-02    1.0194650000e+05
    3.4639336169e-02    1.0194610156e+05
    3.4652780741e-02    1.0194342969e+05
    3.4666225314e-02    1.0194181250e+05
    3.4679658711e-02    1.0194136719e+05
    3.4693088382e-02    1.0193858594e+05
    3.4706510603e-02    1.0193688281e+05
    3.4719929099e-02    1.0193508594e+05
    3.4733340144e-02    1.0193321094e+05
    3.4746743739e-02    1.0193121094e+05
    3.4760143608e-02    1.0192912500e+05
    3.4773536026e-02    1.0192756250e+05
    3.4786924720e-02    1.0192478125e+05
    3.4800305963e-02    1.0192250781e+05
    3.4813679755e-02    1.0192017969e+05
    3.4827046096e-02    1.0191787500e+05
    3.4840408713e-02    1.0191049219e+05
    3.4853763878e-02    1.0191100781e+05
    3.4867111593e-02    1.0190875000e+05
    3.4880455583e-02    1.0190409375e+05
    3.4893795848e-02    1.0190308594e+05
    3.4907124937e-02    1.0190338281e+05
    3.4920454025e-02    1.0190440625e+05
    3.4933775663e-02    1.0190202344e+05
    3.4947093576e-02    1.0190150781e+05
    3.4960404038e-02    1.0189989844e+05
    3.4973710775e-02    1.0189822656e+05
    3.4987010062e-02    1.0189709375e+05
endcurve
