Curveplot
LS-DYNA keyword deck by LS-PrePost                          
Time
Pressure
Defined Connection
Pressure @ 56 #pts=1745
* Minval=     9.9588562500e+04 at time=         0.0158736333
* Maxval=     1.6903746875e+05 at time=         0.0067682853
    0.0000000000e+00    9.9998710938e+04
    3.3812357287e-05    9.9998710938e+04
    6.1326652940e-05    9.9997726562e+04
    8.9102875791e-05    9.9998945312e+04
    1.1682785407e-04    9.9999070312e+04
    1.4461828687e-04    9.9999289062e+04
    1.7236733402e-04    9.9998593750e+04
    2.0016246708e-04    1.0000825000e+05
    2.2795486439e-04    9.9999617188e+04
    2.5574557367e-04    1.0000188281e+05
    2.8353667585e-04    9.9996007812e+04
    3.1133697485e-04    1.0000021094e+05
    3.3912662184e-04    9.9998960938e+04
    3.6691734567e-04    9.9998312500e+04
    3.9470891352e-04    1.0000021875e+05
    4.2249175021e-04    1.0000064844e+05
    4.5027161832e-04    1.0000059375e+05
    4.7804549104e-04    1.0000033594e+05
    5.0581363030e-04    1.0000175000e+05
    5.3357944125e-04    1.0000785156e+05
    5.6134146871e-04    1.0000314844e+05
    5.8909942163e-04    9.9995539062e+04
    6.1685312539e-04    9.9992664062e+04
    6.4460188150e-04    1.0000086719e+05
    6.7234638846e-04    1.0000115625e+05
    7.0008635521e-04    1.0000564844e+05
    7.2782178177e-04    1.0000014844e+05
    7.5555208605e-04    9.9995656250e+04
    7.8327720985e-04    9.9993164062e+04
    8.1099680392e-04    1.0000239844e+05
    8.3871174138e-04    1.0000271875e+05
    8.6642213864e-04    1.0000288281e+05
    8.9412782108e-04    1.0000268750e+05
    9.2182843946e-04    9.9994445312e+04
    9.4952445943e-04    1.0000212500e+05
    9.7721535712e-04    1.0000107031e+05
    1.0049008997e-03    1.0000107031e+05
    1.0325826006e-03    9.9998531250e+04
    1.0602590628e-03    9.9999335938e+04
    1.0879321489e-03    1.0000158594e+05
    1.1155996472e-03    1.0000189844e+05
    1.1432634201e-03    1.0000203906e+05
    1.1709230021e-03    9.9996164062e+04
    1.1985785095e-03    9.9992460938e+04
    1.2262313394e-03    1.0000222656e+05
    1.2538790470e-03    1.0000743750e+05
    1.2815232622e-03    1.0000418750e+05
    1.3091630535e-03    1.0000315625e+05
    1.3368004002e-03    9.9999601562e+04
    1.3644339051e-03    1.0000983594e+05
    1.3920635683e-03    1.0002577344e+05
    1.4196902048e-03    1.0005378125e+05
    1.4473132323e-03    1.0010471875e+05
    1.4749332331e-03    1.0018799219e+05
    1.5025498578e-03    1.0032614844e+05
    1.5301633393e-03    1.0051839844e+05
    1.5577742597e-03    1.0077300781e+05
    1.5853822697e-03    1.0109983594e+05
    1.6129877185e-03    1.0146986719e+05
    1.6405890929e-03    1.0186169531e+05
    1.6681876732e-03    1.0224955469e+05
    1.6957829939e-03    1.0259441406e+05
    1.7233766848e-03    1.0287191406e+05
    1.7509678146e-03    1.0305599219e+05
    1.7785291420e-03    1.0313816406e+05
    1.8060547300e-03    1.0313403906e+05
    1.8335470231e-03    1.0305330469e+05
    1.8610082334e-03    1.0291447656e+05
    1.8884401070e-03    1.0275255469e+05
    1.9158447394e-03    1.0258085156e+05
    1.9432241097e-03    1.0242441406e+05
    1.9705800805e-03    1.0229630469e+05
    1.9979148638e-03    1.0221722656e+05
    2.0252298564e-03    1.0219266406e+05
    2.0525271539e-03    1.0221032031e+05
    2.0798076876e-03    1.0226797656e+05
    2.1070730872e-03    1.0234512500e+05
    2.1343247499e-03    1.0242058594e+05
    2.1615643054e-03    1.0247915625e+05
    2.1887931507e-03    1.0252333594e+05
    2.2160108201e-03    1.0254214844e+05
    2.2432196420e-03    1.0254468750e+05
    2.2704207804e-03    1.0252039844e+05
    2.2976147011e-03    1.0248489844e+05
    2.3248014040e-03    1.0244572656e+05
    2.3519827519e-03    1.0241052344e+05
    2.3791582789e-03    1.0239015625e+05
    2.4063293822e-03    1.0238185156e+05
    2.4334960617e-03    1.0238780469e+05
    2.4606597144e-03    1.0240178906e+05
    2.4878205732e-03    1.0241328906e+05
    2.5149781723e-03    1.0242489844e+05
    2.5421329774e-03    1.0243238281e+05
    2.5692859199e-03    1.0244775781e+05
    2.5964374654e-03    1.0244891406e+05
    2.6235871483e-03    1.0244724219e+05
    2.6507352013e-03    1.0243658594e+05
    2.6778825559e-03    1.0242446094e+05
    2.7050296776e-03    1.0241964844e+05
    2.7321761008e-03    1.0241735156e+05
    2.7593218256e-03    1.0242066406e+05
    2.7864677832e-03    1.0242185156e+05
    2.8136142064e-03    1.0242400781e+05
    2.8407603968e-03    1.0242825000e+05
    2.8679079842e-03    1.0243896094e+05
    2.8950548731e-03    1.0246335156e+05
    2.9222022276e-03    1.0248817969e+05
    2.9493502807e-03    1.0252471875e+05
    2.9764990322e-03    1.0257631250e+05
    3.0036487151e-03    1.0264246875e+05
    3.0307997949e-03    1.0272081250e+05
    3.0579508748e-03    1.0281303906e+05
    3.0851035845e-03    1.0291627344e+05
    3.1122572254e-03    1.0302177344e+05
    3.1394117977e-03    1.0312341406e+05
    3.1665677670e-03    1.0320282031e+05
    3.1937246677e-03    1.0326552344e+05
    3.2208829653e-03    1.0329714844e+05
    3.2480424270e-03    1.0330750781e+05
    3.2752046827e-03    1.0328882031e+05
    3.2952371985e-03    1.0325618750e+05
    3.3145032357e-03    1.0322152344e+05
    3.3336398192e-03    1.0318846094e+05
    3.3528339118e-03    1.0314871875e+05
    3.3720366191e-03    1.0311000000e+05
    3.3912549261e-03    1.0306585156e+05
    3.4104890656e-03    1.0301653125e+05
    3.4297339153e-03    1.0297060156e+05
    3.4486323129e-03    1.0292152344e+05
    3.4671388566e-03    1.0287785156e+05
    3.4854323603e-03    1.0283174219e+05
    3.5036695190e-03    1.0277160156e+05
    3.5219141282e-03    1.0271221875e+05
    3.5401545465e-03    1.0263835156e+05
    3.5583588760e-03    1.0256658594e+05
    3.5765271168e-03    1.0249115625e+05
    3.5946895368e-03    1.0242625781e+05
    3.6139658187e-03    1.0236455469e+05
    3.6330535077e-03    1.0231613281e+05
    3.6521453876e-03    1.0228061719e+05
    3.6699753255e-03    1.0225574219e+05
    3.6875614896e-03    1.0223603125e+05
    3.7050142419e-03    1.0221467969e+05
    3.7224807311e-03    1.0220136719e+05
    3.7400643341e-03    1.0217966406e+05
    3.7577797193e-03    1.0215966406e+05
    3.7755726371e-03    1.0215064844e+05
    3.7933769636e-03    1.0214303125e+05
    3.8111612666e-03    1.0213521875e+05
    3.8289318327e-03    1.0213513281e+05
    3.8467168342e-03    1.0212994531e+05
    3.8645383902e-03    1.0212549219e+05
    3.8824023213e-03    1.0211765625e+05
    3.9002960548e-03    1.0210030469e+05
    3.9182156324e-03    1.0208346875e+05
    3.9361710660e-03    1.0206540625e+05
    3.9541716687e-03    1.0204622656e+05
    3.9733103476e-03    1.0203369531e+05
    3.9924201556e-03    1.0202259375e+05
    4.0104058571e-03    1.0200693750e+05
    4.0284004062e-03    1.0199752344e+05
    4.0464363992e-03    1.0198465625e+05
    4.0656095371e-03    1.0197232031e+05
    4.0847789496e-03    1.0196396875e+05
    4.1039343923e-03    1.0195983594e+05
    4.1219722480e-03    1.0194785156e+05
    4.1400394402e-03    1.0194471875e+05
    4.1591953486e-03    1.0194278906e+05
    4.1784178466e-03    1.0193260156e+05
    4.1976389475e-03    1.0192603906e+05
    4.2168586515e-03    1.0192083594e+05
    4.2360713705e-03    1.0191096094e+05
    4.2552771047e-03    1.0189619531e+05
    4.2744791135e-03    1.0188557031e+05
    4.2936825193e-03    1.0187739844e+05
    4.3128933758e-03    1.0186406250e+05
    4.3321144767e-03    1.0185150781e+05
    4.3513495475e-03    1.0183800000e+05
    4.3705995195e-03    1.0182436719e+05
    4.3898657896e-03    1.0180653906e+05
    4.4091497548e-03    1.0178450000e+05
    4.4284537435e-03    1.0175366406e+05
    4.4477786869e-03    1.0171589844e+05
    4.4671236537e-03    1.0166868750e+05
    4.4864914380e-03    1.0161981250e+05
    4.5058806427e-03    1.0155422656e+05
    4.5252908021e-03    1.0148297656e+05
    4.5447219163e-03    1.0140527344e+05
    4.5641721226e-03    1.0132030469e+05
    4.5836409554e-03    1.0122044531e+05
    4.6031279489e-03    1.0110989844e+05
    4.6226321720e-03    1.0098712500e+05
    4.6421540901e-03    1.0086164844e+05
    4.6616927721e-03    1.0073887500e+05
    4.6812482178e-03    1.0061449219e+05
    4.7008208930e-03    1.0050125000e+05
    4.7204112634e-03    1.0039725000e+05
    4.7400193289e-03    1.0030953125e+05
    4.7596455552e-03    1.0023563281e+05
    4.7792894766e-03    1.0018163281e+05
    4.7989510931e-03    1.0014841406e+05
    4.8186304048e-03    1.0013728906e+05
    4.8383255489e-03    1.0015362500e+05
    4.8580355942e-03    1.0018490625e+05
    4.8777610064e-03    1.0023378125e+05
    4.8975008540e-03    1.0029214844e+05
    4.9172551371e-03    1.0035408594e+05
    4.9370229244e-03    1.0041322656e+05
    4.9568060786e-03    1.0046714844e+05
    4.9766036682e-03    1.0052406250e+05
    4.9964170903e-03    1.0057162500e+05
    5.0162458792e-03    1.0061253906e+05
    5.0360900350e-03    1.0064269531e+05
    5.0559476949e-03    1.0066817969e+05
    5.0758207217e-03    1.0067780469e+05
    5.0957072526e-03    1.0068503125e+05
    5.1156077534e-03    1.0067660156e+05
    5.1355226897e-03    1.0066958594e+05
    5.1554525271e-03    1.0065516406e+05
    5.1753963344e-03    1.0063187500e+05
    5.1953555085e-03    1.0061319531e+05
    5.2153295837e-03    1.0059790625e+05
    5.2353194915e-03    1.0058155469e+05
    5.2553247660e-03    1.0057731250e+05
    5.2753463387e-03    1.0057396094e+05
    5.2953832783e-03    1.0057272656e+05
    5.3154369816e-03    1.0057574219e+05
    5.3355065174e-03    1.0058027344e+05
    5.3555918857e-03    1.0059333594e+05
    5.3756926209e-03    1.0059871094e+05
    5.3958082572e-03    1.0061416406e+05
    5.4159392603e-03    1.0062575000e+05
    5.4360851645e-03    1.0063727344e+05
    5.4562464356e-03    1.0064849219e+05
    5.4764230736e-03    1.0065896875e+05
    5.4966160096e-03    1.0066403906e+05
    5.5168238468e-03    1.0066825000e+05
    5.5370470509e-03    1.0066700781e+05
    5.5572865531e-03    1.0067196094e+05
    5.5775423534e-03    1.0067760156e+05
    5.5978130549e-03    1.0067277344e+05
    5.6181000546e-03    1.0067049219e+05
    5.6384028867e-03    1.0067146875e+05
    5.6587206200e-03    1.0067383594e+05
    5.6790532544e-03    1.0068135156e+05
    5.6994007900e-03    1.0068183594e+05
    5.7197632268e-03    1.0068244531e+05
    5.7401410304e-03    1.0068421875e+05
    5.7605337352e-03    1.0068546875e+05
    5.7809422724e-03    1.0068682031e+05
    5.8013652451e-03    1.0069016406e+05
    5.8218040504e-03    1.0069831250e+05
    5.8422577567e-03    1.0070214844e+05
    5.8627268299e-03    1.0071533594e+05
    5.8832112700e-03    1.0071978906e+05
    5.9037101455e-03    1.0072425000e+05
    5.9242248535e-03    1.0072846875e+05
    5.9447535314e-03    1.0073265625e+05
    5.9641525149e-03    1.0073750000e+05
    5.9830932878e-03    1.0074121094e+05
    6.0020405799e-03    1.0074440625e+05
    6.0210367665e-03    1.0074953906e+05
    6.0400799848e-03    1.0076163281e+05
    6.0591096990e-03    1.0076753906e+05
    6.0781282373e-03    1.0077234375e+05
    6.0972142965e-03    1.0077814844e+05
    6.1162756756e-03    1.0078302344e+05
    6.1353649944e-03    1.0078807031e+05
    6.1544459313e-03    1.0079555469e+05
    6.1734300107e-03    1.0080789844e+05
    6.1924448237e-03    1.0081364844e+05
    6.2115197070e-03    1.0081958594e+05
    6.2306127511e-03    1.0083488281e+05
    6.2497169711e-03    1.0084144531e+05
    6.2688281760e-03    1.0085641406e+05
    6.2879407778e-03    1.0086853906e+05
    6.3070552424e-03    1.0088174219e+05
    6.3261794858e-03    1.0089435156e+05
    6.3453060575e-03    1.0090855469e+05
    6.3644465990e-03    1.0092735156e+05
    6.3835908659e-03    1.0093858594e+05
    6.4027444459e-03    1.0095878125e+05
    6.4219115302e-03    1.0099103125e+05
    6.4410855994e-03    1.0101369531e+05
    6.4602680504e-03    1.0103814844e+05
    6.4794607460e-03    1.0107485156e+05
    6.4986641519e-03    1.0113971094e+05
    6.5178787336e-03    1.0125365625e+05
    6.5371058881e-03    1.0149403906e+05
    6.5563363023e-03    1.0197687500e+05
    6.5755699761e-03    1.0295471094e+05
    6.5948092379e-03    1.0483264844e+05
    6.6140629351e-03    1.0821839844e+05
    6.6333152354e-03    1.1375153906e+05
    6.6525745206e-03    1.2180049219e+05
    6.6718445159e-03    1.3206762500e+05
    6.6911154427e-03    1.4333867188e+05
    6.7104012705e-03    1.5387035938e+05
    6.7296870984e-03    1.6203101562e+05
    6.7489854991e-03    1.6702220312e+05
    6.7682852969e-03    1.6903746875e+05
    6.7875892855e-03    1.6888200000e+05
    6.8069072440e-03    1.6751295312e+05
    6.8262196146e-03    1.6575851562e+05
    6.8455408327e-03    1.6415759375e+05
    6.8648783490e-03    1.6283421875e+05
    6.8842126057e-03    1.6168631250e+05
    6.9035501219e-03    1.6053160938e+05
    6.9228983484e-03    1.5923467188e+05
    6.9422605447e-03    1.5771529688e+05
    6.9616222754e-03    1.5600101562e+05
    6.9809844717e-03    1.5416928125e+05
    7.0003494620e-03    1.5230782812e+05
    7.0197195746e-03    1.5048409375e+05
    7.0390999317e-03    1.4876084375e+05
    7.0584909990e-03    1.4713559375e+05
    7.0778946392e-03    1.4559962500e+05
    7.0973108523e-03    1.4412682812e+05
    7.1167377755e-03    1.4269812500e+05
    7.1361698210e-03    1.4128462500e+05
    7.1556069888e-03    1.3990312500e+05
    7.1750483476e-03    1.3857076562e+05
    7.1944966912e-03    1.3729179688e+05
    7.2139529511e-03    1.3609350000e+05
    7.2334166616e-03    1.3498071875e+05
    7.2528840974e-03    1.3394459375e+05
    7.2723543271e-03    1.3298834375e+05
    7.2918278165e-03    1.3209689062e+05
    7.3113050312e-03    1.3126809375e+05
    7.3307845742e-03    1.3047539844e+05
    7.3502692394e-03    1.2972955469e+05
    7.3697618209e-03    1.2900885156e+05
    7.3892641813e-03    1.2832382031e+05
    7.4087800458e-03    1.2767103906e+05
    7.4282912537e-03    1.2704557031e+05
    7.4477996677e-03    1.2645771094e+05
    7.4673094787e-03    1.2590134375e+05
    7.4868267402e-03    1.2535594531e+05
    7.5063589029e-03    1.2483724219e+05
    7.5258887373e-03    1.2433475781e+05
    7.5454111211e-03    1.2384650000e+05
    7.5649353676e-03    1.2338046094e+05
    7.5844703242e-03    1.2293257031e+05
    7.6040057465e-03    1.2251643750e+05
    7.6235276647e-03    1.2213489844e+05
    7.6430505142e-03    1.2179069531e+05
    7.6625877991e-03    1.2147234375e+05
    7.6821087860e-03    1.2118025781e+05
    7.7016241848e-03    1.2090971094e+05
    7.7211544849e-03    1.2065450781e+05
    7.7406810597e-03    1.2041541406e+05
    7.7602043748e-03    1.2019141406e+05
    7.7797495760e-03    1.1997014844e+05
    7.7992938459e-03    1.1975753906e+05
    7.8188432381e-03    1.1954646094e+05
    7.8384252265e-03    1.1933188281e+05
    7.8580006957e-03    1.1911056250e+05
    7.8775910661e-03    1.1889146094e+05
    7.8972103074e-03    1.1866574219e+05
    7.9168286175e-03    1.1843950000e+05
    7.9364804551e-03    1.1821666406e+05
    7.9561360180e-03    1.1798706250e+05
    7.9758102074e-03    1.1775916406e+05
    7.9955114052e-03    1.1753683594e+05
    8.0152126029e-03    1.1730712500e+05
    8.0349491909e-03    1.1708257031e+05
    8.0546662211e-03    1.1686308594e+05
    8.0743944272e-03    1.1665336719e+05
    8.0941170454e-03    1.1644775000e+05
    8.1138620153e-03    1.1625059375e+05
    8.1336386502e-03    1.1606608594e+05
    8.1534720957e-03    1.1588592969e+05
    8.1733558327e-03    1.1572280469e+05
    8.1932730973e-03    1.1556033594e+05
    8.2132071257e-03    1.1541615625e+05
    8.2330890000e-03    1.1528278906e+05
    8.2529615611e-03    1.1515768750e+05
    8.2727763802e-03    1.1504515625e+05
    8.2926023751e-03    1.1493797656e+05
    8.3124246448e-03    1.1483705469e+05
    8.3322748542e-03    1.1474971094e+05
    8.3521194756e-03    1.1466099219e+05
    8.3719678223e-03    1.1457891406e+05
    8.3917891607e-03    1.1449341406e+05
    8.4116021171e-03    1.1441214844e+05
    8.4314141423e-03    1.1433164844e+05
    8.4512168542e-03    1.1422908594e+05
    8.4710381925e-03    1.1412371094e+05
    8.4908353165e-03    1.1400552344e+05
    8.5106678307e-03    1.1388487500e+05
    8.5304882377e-03    1.1375558594e+05
    8.5503393784e-03    1.1362109375e+05
    8.5699046031e-03    1.1347561719e+05
    8.5892248899e-03    1.1333108594e+05
    8.6083402857e-03    1.1318780469e+05
    8.6272666231e-03    1.1304434375e+05
    8.6460309103e-03    1.1290956250e+05
    8.6646731943e-03    1.1277760156e+05
    8.6832325906e-03    1.1265896094e+05
    8.7017398328e-03    1.1255590625e+05
    8.7202098221e-03    1.1245960156e+05
    8.7386453524e-03    1.1237944531e+05
    8.7570473552e-03    1.1231058594e+05
    8.7753897533e-03    1.1225069531e+05
    8.7936492637e-03    1.1220078125e+05
    8.8118780404e-03    1.1216096094e+05
    8.8300397620e-03    1.1212064844e+05
    8.8481390849e-03    1.1208721094e+05
    8.8662039489e-03    1.1204953125e+05
    8.8842641562e-03    1.1201246094e+05
    8.9023411274e-03    1.1197366406e+05
    8.9204348624e-03    1.1192946875e+05
    8.9385388419e-03    1.1188361719e+05
    8.9566456154e-03    1.1182589844e+05
    8.9747514576e-03    1.1176296094e+05
    8.9928600937e-03    1.1169290625e+05
    9.0109808370e-03    1.1161835156e+05
    9.0291155502e-03    1.1154435156e+05
    9.0472688898e-03    1.1146583594e+05
    9.0654399246e-03    1.1139022656e+05
    9.0836230665e-03    1.1131168750e+05
    9.1018192470e-03    1.1123466406e+05
    9.1200266033e-03    1.1115978125e+05
    9.1382460669e-03    1.1109252344e+05
    9.1564757749e-03    1.1101883594e+05
    9.1747231781e-03    1.1095085156e+05
    9.1929892078e-03    1.1088541406e+05
    9.2112747952e-03    1.1081858594e+05
    9.2295790091e-03    1.1075510156e+05
    9.2479009181e-03    1.1069418750e+05
    9.2662386596e-03    1.1063052344e+05
    9.2845931649e-03    1.1056339844e+05
    9.3029672280e-03    1.1050037500e+05
    9.3213599175e-03    1.1043456250e+05
    9.3397712335e-03    1.1036303906e+05
    9.3582011759e-03    1.1029238281e+05
    9.3766497448e-03    1.1022103906e+05
    9.3951150775e-03    1.1015121875e+05
    9.4135999680e-03    1.1008747656e+05
    9.4321016222e-03    1.1002513281e+05
    9.4506228343e-03    1.0996367969e+05
    9.4691645354e-03    1.0990375000e+05
    9.4877239317e-03    1.0984788281e+05
    9.5063010231e-03    1.0979885156e+05
    9.5248948783e-03    1.0975252344e+05
    9.5435054973e-03    1.0970819531e+05
    9.5621328801e-03    1.0966558594e+05
    9.5807760954e-03    1.0962553906e+05
    9.5994332805e-03    1.0959019531e+05
    9.6181081608e-03    1.0954502344e+05
    9.6367979422e-03    1.0950250781e+05
    9.6555035561e-03    1.0945889844e+05
    9.6742231399e-03    1.0941960156e+05
    9.6929576248e-03    1.0937593750e+05
    9.7117051482e-03    1.0932915625e+05
    9.7304685041e-03    1.0928633594e+05
    9.7492448986e-03    1.0924057031e+05
    9.7680361941e-03    1.0919800000e+05
    9.7868405282e-03    1.0915432031e+05
    9.8056588322e-03    1.0911410156e+05
    9.8244920373e-03    1.0907078906e+05
    9.8433364183e-03    1.0903155469e+05
    9.8621929064e-03    1.0898127344e+05
    9.8810633644e-03    1.0894177344e+05
    9.8999459296e-03    1.0889886719e+05
    9.9188406020e-03    1.0885707031e+05
    9.9377483130e-03    1.0881605469e+05
    9.9566690624e-03    1.0877447656e+05
    9.9756028503e-03    1.0872941406e+05
    9.9945487455e-03    1.0869196875e+05
    1.0013507679e-02    1.0865580469e+05
    1.0032479651e-02    1.0862593750e+05
    1.0051463731e-02    1.0859314844e+05
    1.0070459917e-02    1.0856665625e+05
    1.0089469142e-02    1.0853066406e+05
    1.0108492337e-02    1.0849384375e+05
    1.0127528571e-02    1.0845472656e+05
    1.0146577843e-02    1.0840658594e+05
    1.0165639222e-02    1.0834884375e+05
    1.0184712708e-02    1.0827903906e+05
    1.0203798302e-02    1.0819783594e+05
    1.0222896002e-02    1.0810746875e+05
    1.0242006741e-02    1.0800541406e+05
    1.0261129588e-02    1.0788918750e+05
    1.0280264542e-02    1.0776460156e+05
    1.0299413465e-02    1.0762832031e+05
    1.0318575427e-02    1.0749032031e+05
    1.0337748565e-02    1.0734519531e+05
    1.0356934741e-02    1.0719083594e+05
    1.0376133956e-02    1.0702705469e+05
    1.0395346209e-02    1.0687487500e+05
    1.0414571501e-02    1.0671660156e+05
    1.0433809832e-02    1.0656383594e+05
    1.0453061201e-02    1.0642164844e+05
    1.0472324677e-02    1.0629167969e+05
    1.0491601191e-02    1.0616414844e+05
    1.0510892607e-02    1.0604036719e+05
    1.0530196130e-02    1.0593005469e+05
    1.0549513623e-02    1.0582314844e+05
    1.0568842292e-02    1.0572261719e+05
    1.0588183999e-02    1.0563169531e+05
    1.0607538745e-02    1.0554566406e+05
    1.0626907460e-02    1.0546631250e+05
    1.0646289214e-02    1.0539536719e+05
    1.0665684007e-02    1.0533453125e+05
    1.0685092770e-02    1.0528014844e+05
    1.0704516433e-02    1.0523202344e+05
    1.0723951273e-02    1.0520213281e+05
    1.0743400082e-02    1.0516766406e+05
    1.0762862861e-02    1.0513540625e+05
    1.0782338679e-02    1.0511255469e+05
    1.0801829398e-02    1.0508503906e+05
    1.0821334086e-02    1.0506308594e+05
    1.0840852745e-02    1.0504003906e+05
    1.0860386305e-02    1.0500560156e+05
    1.0879932903e-02    1.0496800000e+05
    1.0899493471e-02    1.0491896875e+05
    1.0919069871e-02    1.0485721094e+05
    1.0938662104e-02    1.0479886719e+05
    1.0958270170e-02    1.0473627344e+05
    1.0977892205e-02    1.0467846094e+05
    1.0997531936e-02    1.0462689844e+05
    1.1017187499e-02    1.0458036719e+05
    1.1036860757e-02    1.0454739844e+05
    1.1056551710e-02    1.0452415625e+05
    1.1076259427e-02    1.0450693750e+05
    1.1095987633e-02    1.0449342969e+05
    1.1115733534e-02    1.0449046094e+05
    1.1135498993e-02    1.0447978125e+05
    1.1155283079e-02    1.0448217969e+05
    1.1175086722e-02    1.0447281250e+05
    1.1194912717e-02    1.0445983594e+05
    1.1214758269e-02    1.0443811719e+05
    1.1234625243e-02    1.0440255469e+05
    1.1254511774e-02    1.0436646875e+05
    1.1274418794e-02    1.0432541406e+05
    1.1294347234e-02    1.0428403906e+05
    1.1314296164e-02    1.0423721875e+05
    1.1334266514e-02    1.0419167969e+05
    1.1354257353e-02    1.0414296875e+05
    1.1374268681e-02    1.0409608594e+05
    1.1394302361e-02    1.0404109375e+05
    1.1414355598e-02    1.0398928906e+05
    1.1434430256e-02    1.0393556250e+05
    1.1454525404e-02    1.0388572656e+05
    1.1474640109e-02    1.0382996094e+05
    1.1494777165e-02    1.0378230469e+05
    1.1514934711e-02    1.0372939844e+05
    1.1535113677e-02    1.0367071094e+05
    1.1555313133e-02    1.0361575781e+05
    1.1575534008e-02    1.0356022656e+05
    1.1595774442e-02    1.0350158594e+05
    1.1616035365e-02    1.0344602344e+05
    1.1636316776e-02    1.0339519531e+05
    1.1656619608e-02    1.0335221094e+05
    1.1676942930e-02    1.0330727344e+05
    1.1697287671e-02    1.0327378906e+05
    1.1717652902e-02    1.0323428125e+05
    1.1738038622e-02    1.0319447656e+05
    1.1758443899e-02    1.0315475781e+05
    1.1778870597e-02    1.0311597656e+05
    1.1799318716e-02    1.0306928906e+05
    1.1819788255e-02    1.0302318750e+05
    1.1840280145e-02    1.0297743750e+05
    1.1860790662e-02    1.0293172656e+05
    1.1881321669e-02    1.0287800000e+05
    1.1901874095e-02    1.0282972656e+05
    1.1922447011e-02    1.0278109375e+05
    1.1943042278e-02    1.0274356250e+05
    1.1963658035e-02    1.0270722656e+05
    1.1984295212e-02    1.0267821875e+05
    1.2004952878e-02    1.0265234375e+05
    1.2025631964e-02    1.0262962500e+05
    1.2046331540e-02    1.0260903906e+05
    1.2067052536e-02    1.0258964844e+05
    1.2087795883e-02    1.0256878906e+05
    1.2108558789e-02    1.0255842969e+05
    1.2129344046e-02    1.0255653125e+05
    1.2150149792e-02    1.0256153125e+05
    1.2170976959e-02    1.0259377344e+05
    1.2191825546e-02    1.0263783594e+05
    1.2212695554e-02    1.0271691406e+05
    1.2233586982e-02    1.0283686719e+05
    1.2254500762e-02    1.0302446094e+05
    1.2275436893e-02    1.0329178906e+05
    1.2296394445e-02    1.0366116406e+05
    1.2317374349e-02    1.0415772656e+05
    1.2338375673e-02    1.0479137500e+05
    1.2359398417e-02    1.0557972656e+05
    1.2380442582e-02    1.0651468750e+05
    1.2401508167e-02    1.0757347656e+05
    1.2422595173e-02    1.0870528125e+05
    1.2443703599e-02    1.0984515625e+05
    1.2464834377e-02    1.1090566406e+05
    1.2485986575e-02    1.1180842969e+05
    1.2507158332e-02    1.1248793750e+05
    1.2528351508e-02    1.1288947656e+05
    1.2549565174e-02    1.1301321875e+05
    1.2570801191e-02    1.1287267969e+05
    1.2592058629e-02    1.1250922656e+05
    1.2613337487e-02    1.1196425781e+05
    1.2634636834e-02    1.1128961719e+05
    1.2655957602e-02    1.1055200781e+05
    1.2677297927e-02    1.0980360156e+05
    1.2698660605e-02    1.0910150000e+05
    1.2720043771e-02    1.0848027344e+05
    1.2741449289e-02    1.0796510156e+05
    1.2762876227e-02    1.0754978906e+05
    1.2784325518e-02    1.0721687500e+05
    1.2805794366e-02    1.0693140625e+05
    1.2827285565e-02    1.0664793750e+05
    1.2848797254e-02    1.0633600000e+05
    1.2870330364e-02    1.0597116406e+05
    1.2891885825e-02    1.0554383594e+05
    1.2913462706e-02    1.0507339844e+05
    1.2935061008e-02    1.0455185156e+05
    1.2956679799e-02    1.0401444531e+05
    1.2978320010e-02    1.0348360156e+05
    1.2999981642e-02    1.0297792969e+05
    1.3021663763e-02    1.0252521094e+05
    1.3043368235e-02    1.0214230469e+05
    1.3065092266e-02    1.0182753906e+05
    1.3086837716e-02    1.0157714844e+05
    1.3108605519e-02    1.0137783594e+05
    1.3130392879e-02    1.0121283594e+05
    1.3152201660e-02    1.0107659375e+05
    1.3174032792e-02    1.0096064844e+05
    1.3195885345e-02    1.0086809375e+05
    1.3217759319e-02    1.0078791406e+05
    1.3239653781e-02    1.0071166406e+05
    1.3261569664e-02    1.0065025000e+05
    1.3283506967e-02    1.0059150000e+05
    1.3305463828e-02    1.0054586719e+05
    1.3327440247e-02    1.0050464844e+05
    1.3349435292e-02    1.0048343750e+05
    1.3371448033e-02    1.0046997656e+05
    1.3393475674e-02    1.0046378125e+05
    1.3415516354e-02    1.0045346875e+05
    1.3437564485e-02    1.0044221875e+05
    1.3459613547e-02    1.0041628125e+05
    1.3481658883e-02    1.0037242969e+05
    1.3503690250e-02    1.0031680469e+05
    1.3525702059e-02    1.0025140625e+05
    1.3547683135e-02    1.0016447656e+05
    1.3569628820e-02    1.0007683594e+05
    1.3591531664e-02    9.9992398438e+04
    1.3613392599e-02    9.9919898438e+04
    1.3635210693e-02    9.9874851562e+04
    1.3656994328e-02    9.9856039062e+04
    1.3678749092e-02    9.9869570312e+04
    1.3700488023e-02    9.9910648438e+04
    1.3722228818e-02    9.9957929688e+04
    1.3743981719e-02    1.0000567969e+05
    1.3765762560e-02    1.0004896094e+05
    1.3787578791e-02    1.0008072656e+05
    1.3809437864e-02    1.0009875000e+05
    1.3831341639e-02    1.0009896094e+05
    1.3853288256e-02    1.0009041406e+05
    1.3875273056e-02    1.0006877344e+05
    1.3897285797e-02    1.0005591406e+05
    1.3919321820e-02    1.0005558594e+05
    1.3941374607e-02    1.0007266406e+05
    1.3963440433e-02    1.0011514844e+05
    1.3985517435e-02    1.0017856250e+05
    1.4007603750e-02    1.0025828906e+05
    1.4029704034e-02    1.0034616406e+05
    1.4051820152e-02    1.0045089844e+05
    1.4073957689e-02    1.0054880469e+05
    1.4096121304e-02    1.0064414844e+05
    1.4118315652e-02    1.0073678125e+05
    1.4140545391e-02    1.0082193750e+05
    1.4162814245e-02    1.0089646094e+05
    1.4185124077e-02    1.0096802344e+05
    1.4207473956e-02    1.0103846875e+05
    1.4229862019e-02    1.0109752344e+05
    1.4252286404e-02    1.0115316406e+05
    1.4274741523e-02    1.0120385156e+05
    1.4297228307e-02    1.0125153125e+05
    1.4319745824e-02    1.0129367969e+05
    1.4342290349e-02    1.0132514844e+05
    1.4364863746e-02    1.0135707031e+05
    1.4387467876e-02    1.0137146094e+05
    1.4410103671e-02    1.0137583594e+05
    1.4432771131e-02    1.0137280469e+05
    1.4455472119e-02    1.0136000000e+05
    1.4478209428e-02    1.0133514844e+05
    1.4500979334e-02    1.0130072656e+05
    1.4523783699e-02    1.0126267969e+05
    1.4546621591e-02    1.0121275781e+05
    1.4569494873e-02    1.0116108594e+05
    1.4592399821e-02    1.0110308594e+05
    1.4615339227e-02    1.0104194531e+05
    1.4638305642e-02    1.0097760156e+05
    1.4661304653e-02    1.0090430469e+05
    1.4684336260e-02    1.0082859375e+05
    1.4707398601e-02    1.0075181250e+05
    1.4730494469e-02    1.0067974219e+05
    1.4753622934e-02    1.0060738281e+05
    1.4776783995e-02    1.0053650000e+05
    1.4799979515e-02    1.0047578125e+05
    1.4823205769e-02    1.0042772656e+05
    1.4846466482e-02    1.0038917969e+05
    1.4869757928e-02    1.0035600781e+05
    1.4893081971e-02    1.0033478125e+05
    1.4916437678e-02    1.0032450000e+05
    1.4939822257e-02    1.0032524219e+05
    1.4963239431e-02    1.0033609375e+05
    1.4986685477e-02    1.0035286719e+05
    1.5010161325e-02    1.0036392969e+05
    1.5033668838e-02    1.0038531250e+05
    1.5057205223e-02    1.0040421094e+05
    1.5080772340e-02    1.0042286719e+05
    1.5104367398e-02    1.0043756250e+05
    1.5127992257e-02    1.0044583594e+05
    1.5151646920e-02    1.0044968750e+05
    1.5175330453e-02    1.0045756250e+05
    1.5199041925e-02    1.0046224219e+05
    1.5222782269e-02    1.0046812500e+05
    1.5246548690e-02    1.0047287500e+05
    1.5270343982e-02    1.0048072656e+05
    1.5294168144e-02    1.0048228906e+05
    1.5318016522e-02    1.0047991406e+05
    1.5341891907e-02    1.0047522656e+05
    1.5365792438e-02    1.0046221875e+05
    1.5389721841e-02    1.0044732031e+05
    1.5413676389e-02    1.0043233594e+05
    1.5437657945e-02    1.0040210156e+05
    1.5461664647e-02    1.0037557031e+05
    1.5485695563e-02    1.0033016406e+05
    1.5509752557e-02    1.0028284375e+05
    1.5533835627e-02    1.0023527344e+05
    1.5557944775e-02    1.0017458594e+05
    1.5582079068e-02    1.0010977344e+05
    1.5606240369e-02    1.0005155469e+05
    1.5630424023e-02    9.9982664062e+04
    1.5654634684e-02    9.9916539062e+04
    1.5678871423e-02    9.9850554688e+04
    1.5703132376e-02    9.9799382812e+04
    1.5727419406e-02    9.9745593750e+04
    1.5751728788e-02    9.9699929688e+04
    1.5776060522e-02    9.9660929688e+04
    1.5800418332e-02    9.9628773438e+04
    1.5824800357e-02    9.9602179688e+04
    1.5849204734e-02    9.9590414062e+04
    1.5873633325e-02    9.9588562500e+04
    1.5898084268e-02    9.9596273438e+04
    1.5922557563e-02    9.9618023438e+04
    1.5947058797e-02    9.9640125000e+04
    1.5971582383e-02    9.9675343750e+04
    1.5996130183e-02    9.9712968750e+04
    1.6020702198e-02    9.9754968750e+04
    1.6045298427e-02    9.9796898438e+04
    1.6069920734e-02    9.9848210938e+04
    1.6094569117e-02    9.9888914062e+04
    1.6119243577e-02    9.9936710938e+04
    1.6143942252e-02    9.9977031250e+04
    1.6168667004e-02    1.0002472656e+05
    1.6193419695e-02    1.0006077344e+05
    1.6218200326e-02    1.0009652344e+05
    1.6243007034e-02    1.0013047656e+05
    1.6267839819e-02    1.0016264844e+05
    1.6292702407e-02    1.0020341406e+05
    1.6317596659e-02    1.0024441406e+05
    1.6342513263e-02    1.0029197656e+05
    1.6367461532e-02    1.0034391406e+05
    1.6392435879e-02    1.0040790625e+05
    1.6417443752e-02    1.0047205469e+05
    1.6442479566e-02    1.0053553906e+05
    1.6467543319e-02    1.0059933594e+05
    1.6492636874e-02    1.0065797656e+05
    1.6517756507e-02    1.0071185156e+05
    1.6542907804e-02    1.0075693750e+05
    1.6568088904e-02    1.0079703906e+05
    1.6593271866e-02    1.0082628125e+05
    1.6618426889e-02    1.0084752344e+05
    1.6643559560e-02    1.0086227344e+05
    1.6668669879e-02    1.0087656250e+05
    1.6693757847e-02    1.0088485156e+05
    1.6718825325e-02    1.0089275781e+05
    1.6743874177e-02    1.0090533594e+05
    1.6768900678e-02    1.0091913281e+05
    1.6793908551e-02    1.0093397656e+05
    1.6818899661e-02    1.0094636719e+05
    1.6843874007e-02    1.0096939844e+05
    1.6868829727e-02    1.0098902344e+05
    1.6893770546e-02    1.0101615625e+05
    1.6918692738e-02    1.0104139844e+05
    1.6943598166e-02    1.0107796094e+05
    1.6968490556e-02    1.0111585156e+05
    1.6993366182e-02    1.0116703125e+05
    1.7018226907e-02    1.0122107031e+05
    1.7043072730e-02    1.0127328125e+05
    1.7067901790e-02    1.0133203906e+05
    1.7092714086e-02    1.0139819531e+05
    1.7117511481e-02    1.0147093750e+05
    1.7142292112e-02    1.0154403125e+05
    1.7167057842e-02    1.0161350000e+05
    1.7191808671e-02    1.0168321094e+05
    1.7216544598e-02    1.0175381250e+05
    1.7241263762e-02    1.0181666406e+05
    1.7265968025e-02    1.0187362500e+05
    1.7290659249e-02    1.0192327344e+05
    1.7315333709e-02    1.0197528125e+05
    1.7339993268e-02    1.0201046875e+05
    1.7364639789e-02    1.0203313281e+05
    1.7389267683e-02    1.0205725781e+05
    1.7413880676e-02    1.0207339844e+05
    1.7438478768e-02    1.0208561719e+05
    1.7463061959e-02    1.0209543750e+05
    1.7487626523e-02    1.0209571094e+05
    1.7512176186e-02    1.0209103906e+05
    1.7536709085e-02    1.0209394531e+05
    1.7561223358e-02    1.0209340625e+05
    1.7585720867e-02    1.0209113281e+05
    1.7610201612e-02    1.0209228125e+05
    1.7634663731e-02    1.0208683594e+05
    1.7659107223e-02    1.0209177344e+05
    1.7683532089e-02    1.0210055469e+05
    1.7707940191e-02    1.0211037500e+05
    1.7732329667e-02    1.0212400000e+05
    1.7756698653e-02    1.0213703906e+05
    1.7781050876e-02    1.0216119531e+05
    1.7805384472e-02    1.0218091406e+05
    1.7829699442e-02    1.0220989844e+05
    1.7853999510e-02    1.0223817969e+05
    1.7878280953e-02    1.0226764844e+05
    1.7902545631e-02    1.0229235156e+05
    1.7926793545e-02    1.0231727344e+05
    1.7951028422e-02    1.0234644531e+05
    1.7975246534e-02    1.0237475781e+05
    1.7999447882e-02    1.0240777344e+05
    1.8023636192e-02    1.0244033594e+05
    1.8047811463e-02    1.0246943750e+05
    1.8071975559e-02    1.0251039844e+05
    1.8096126616e-02    1.0255528125e+05
    1.8120266497e-02    1.0260257031e+05
    1.8144397065e-02    1.0266761719e+05
    1.8168520182e-02    1.0273619531e+05
    1.8192630261e-02    1.0282010156e+05
    1.8216732889e-02    1.0291827344e+05
    1.8240824342e-02    1.0302739844e+05
    1.8264908344e-02    1.0313828125e+05
    1.8288983032e-02    1.0325207031e+05
    1.8313048407e-02    1.0335890625e+05
    1.8337102607e-02    1.0346147656e+05
    1.8361147493e-02    1.0353759375e+05
    1.8385183066e-02    1.0359052344e+05
    1.8409207463e-02    1.0361121094e+05
    1.8433224410e-02    1.0360164844e+05
    1.8457230181e-02    1.0355918750e+05
    1.8481226638e-02    1.0348159375e+05
    1.8505210057e-02    1.0336357031e+05
    1.8529184163e-02    1.0320477344e+05
    1.8553148955e-02    1.0300585156e+05
    1.8577100709e-02    1.0277030469e+05
    1.8601041287e-02    1.0251328906e+05
    1.8624972552e-02    1.0224753906e+05
    1.8648892641e-02    1.0197830469e+05
    1.8672801554e-02    1.0171244531e+05
    1.8696699291e-02    1.0146535156e+05
    1.8720587716e-02    1.0124346094e+05
    1.8744463101e-02    1.0105322656e+05
    1.8768329173e-02    1.0090310156e+05
    1.8792184070e-02    1.0078950781e+05
    1.8816027790e-02    1.0070546875e+05
    1.8839860335e-02    1.0065164844e+05
    1.8863683566e-02    1.0062521094e+05
    1.8887493759e-02    1.0061371875e+05
    1.8911294639e-02    1.0061635156e+05
    1.8935086206e-02    1.0063339844e+05
    1.8958866596e-02    1.0066080469e+05
    1.8982635811e-02    1.0069078906e+05
    1.9006397575e-02    1.0072492969e+05
    1.9030146301e-02    1.0077300781e+05
    1.9053885713e-02    1.0081192969e+05
    1.9077615812e-02    1.0086246094e+05
    1.9101334736e-02    1.0090947656e+05
    1.9125042483e-02    1.0095827344e+05
    1.9148740917e-02    1.0100546094e+05
    1.9172428176e-02    1.0105149219e+05
    1.9196104258e-02    1.0109787500e+05
    1.9219771028e-02    1.0114083594e+05
    1.9243424758e-02    1.0118435156e+05
    1.9267069176e-02    1.0121597656e+05
    1.9290700555e-02    1.0125127344e+05
    1.9314322621e-02    1.0128717969e+05
    1.9337931648e-02    1.0132702344e+05
    1.9361529499e-02    1.0136871875e+05
    1.9385114312e-02    1.0141592969e+05
    1.9408687949e-02    1.0147578125e+05
    1.9432250410e-02    1.0152977344e+05
    1.9455801696e-02    1.0159891406e+05
    1.9479339942e-02    1.0166996094e+05
    1.9502865151e-02    1.0173822656e+05
    1.9526379183e-02    1.0180735156e+05
    1.9549878314e-02    1.0187560156e+05
    1.9573366269e-02    1.0193827344e+05
    1.9596841186e-02    1.0200130469e+05
    1.9620303065e-02    1.0206439844e+05
    1.9643751904e-02    1.0212241406e+05
    1.9667187706e-02    1.0216908594e+05
    1.9690606743e-02    1.0221553906e+05
    1.9714014605e-02    1.0226391406e+05
    1.9737409428e-02    1.0230742969e+05
    1.9760791212e-02    1.0235137500e+05
    1.9784159958e-02    1.0239153125e+05
    1.9807513803e-02    1.0242508594e+05
    1.9830854610e-02    1.0245084375e+05
    1.9854182377e-02    1.0247082031e+05
    1.9877497107e-02    1.0248371094e+05
    1.9900798798e-02    1.0249346094e+05
    1.9924087450e-02    1.0250427344e+05
    1.9947361201e-02    1.0250274219e+05
    1.9970623776e-02    1.0249692969e+05
    1.9993871450e-02    1.0249868750e+05
    2.0017107949e-02    1.0249055469e+05
    2.0040329546e-02    1.0248160156e+05
    2.0063538104e-02    1.0246433594e+05
    2.0086731762e-02    1.0245333594e+05
    2.0109914243e-02    1.0243862500e+05
    2.0133081824e-02    1.0242382031e+05
    2.0156236365e-02    1.0240877344e+05
    2.0179376006e-02    1.0238758594e+05
    2.0202504471e-02    1.0237121875e+05
    2.0225618035e-02    1.0234906250e+05
    2.0248720422e-02    1.0232838281e+05
    2.0271807909e-02    1.0230510156e+05
    2.0294882357e-02    1.0228639844e+05
    2.0317947492e-02    1.0226597656e+05
    2.0340997726e-02    1.0224618750e+05
    2.0364036784e-02    1.0223589844e+05
    2.0387060940e-02    1.0221825000e+05
    2.0410073921e-02    1.0220293750e+05
    2.0433073863e-02    1.0218372656e+05
    2.0456060767e-02    1.0217172656e+05
    2.0479036495e-02    1.0215985156e+05
    2.0501999184e-02    1.0214860156e+05
    2.0524948835e-02    1.0213272656e+05
    2.0547885448e-02    1.0212141406e+05
    2.0570809022e-02    1.0211014844e+05
    2.0593719557e-02    1.0209506250e+05
    2.0616617054e-02    1.0209046094e+05
    2.0639499649e-02    1.0208058594e+05
    2.0662369207e-02    1.0207068750e+05
    2.0685223863e-02    1.0206493750e+05
    2.0708063617e-02    1.0205185156e+05
    2.0730890334e-02    1.0204424219e+05
    2.0753700286e-02    1.0203492969e+05
    2.0776495337e-02    1.0202206250e+05
    2.0799275488e-02    1.0201309375e+05
    2.0822042599e-02    1.0199641406e+05
    2.0844791085e-02    1.0197971094e+05
    2.0867524669e-02    1.0196785156e+05
    2.0890241489e-02    1.0195359375e+05
    2.0912945271e-02    1.0193508594e+05
    2.0935632288e-02    1.0192231250e+05
    2.0958306268e-02    1.0190903906e+05
    2.0980965346e-02    1.0189796094e+05
    2.1003607661e-02    1.0188188281e+05
    2.1026238799e-02    1.0186580469e+05
    2.1048855036e-02    1.0184507031e+05
    2.1071458235e-02    1.0182991406e+05
    2.1094048396e-02    1.0181553906e+05
    2.1116625518e-02    1.0180678906e+05
    2.1139191464e-02    1.0179708594e+05
    2.1161744371e-02    1.0178177344e+05
    2.1184286103e-02    1.0176891406e+05
    2.1206818521e-02    1.0175846094e+05
    2.1229337901e-02    1.0174618750e+05
    2.1251846105e-02    1.0174487500e+05
    2.1274344996e-02    1.0174393750e+05
    2.1296832711e-02    1.0173503906e+05
    2.1319312975e-02    1.0172649219e+05
    2.1341778338e-02    1.0172289844e+05
    2.1364232525e-02    1.0171861719e+05
    2.1386675537e-02    1.0171846875e+05
    2.1409107372e-02    1.0171317969e+05
    2.1431528032e-02    1.0171653906e+05
    2.1453931928e-02    1.0171178906e+05
    2.1476324648e-02    1.0170692969e+05
    2.1498700604e-02    1.0170737500e+05
    2.1521063522e-02    1.0171211719e+05
    2.1543409675e-02    1.0171308594e+05
    2.1565740928e-02    1.0171940625e+05
    2.1588053554e-02    1.0171703906e+05
    2.1610351279e-02    1.0171660156e+05
    2.1632634103e-02    1.0171585156e+05
    2.1654898301e-02    1.0171653125e+05
    2.1677147597e-02    1.0171800000e+05
    2.1699378267e-02    1.0171864844e+05
    2.1721594036e-02    1.0172086719e+05
    2.1743793041e-02    1.0172050000e+05
    2.1765975282e-02    1.0172039844e+05
    2.1788140759e-02    1.0172283594e+05
    2.1810289472e-02    1.0172046094e+05
    2.1832419559e-02    1.0172153125e+05
    2.1854531020e-02    1.0172197656e+05
    2.1876627579e-02    1.0172939844e+05
    2.1898705512e-02    1.0172828125e+05
    2.1920768544e-02    1.0172561719e+05
    2.1942811087e-02    1.0172571875e+05
    2.1964838728e-02    1.0172639844e+05
    2.1986849606e-02    1.0172635156e+05
    2.2008845583e-02    1.0172614844e+05
    2.2030822933e-02    1.0172618750e+05
    2.2052785382e-02    1.0172116406e+05
    2.2074732929e-02    1.0171502344e+05
    2.2096665576e-02    1.0170827344e+05
    2.2118583322e-02    1.0170683594e+05
    2.2140489891e-02    1.0170866406e+05
    2.2162377834e-02    1.0170609375e+05
    2.2184254602e-02    1.0170272656e+05
    2.2206118330e-02    1.0170025781e+05
    2.2227969021e-02    1.0169700000e+05
    2.2249806672e-02    1.0168566406e+05
    2.2271629423e-02    1.0168985156e+05
    2.2293440998e-02    1.0168892969e+05
    2.2315241396e-02    1.0168633594e+05
    2.2337028757e-02    1.0168315625e+05
    2.2358803079e-02    1.0167178906e+05
    2.2380566224e-02    1.0166810156e+05
    2.2402318195e-02    1.0166535156e+05
    2.2424057126e-02    1.0166127344e+05
    2.2445784882e-02    1.0165641406e+05
    2.2467501462e-02    1.0165577344e+05
    2.2489206865e-02    1.0164456250e+05
    2.2510899231e-02    1.0164010156e+05
    2.2532582283e-02    1.0163385156e+05
    2.2554252297e-02    1.0163094531e+05
    2.2575911134e-02    1.0162721094e+05
    2.2597560659e-02    1.0161452344e+05
    2.2619199008e-02    1.0161014844e+05
    2.2640828043e-02    1.0160515625e+05
    2.2662445903e-02    1.0159928906e+05
    2.2684050724e-02    1.0159596875e+05
    2.2705646232e-02    1.0159052344e+05
    2.2727232426e-02    1.0158617969e+05
    2.2748809308e-02    1.0158228906e+05
    2.2770375013e-02    1.0157228906e+05
    2.2791929543e-02    1.0156656250e+05
    2.2813472897e-02    1.0155866406e+05
    2.2835006937e-02    1.0155709375e+05
    2.2856531665e-02    1.0154977344e+05
    2.2878047079e-02    1.0153822656e+05
    2.2899549454e-02    1.0152987500e+05
    2.2921044379e-02    1.0152653125e+05
    2.2942528129e-02    1.0151986719e+05
    2.2964000702e-02    1.0151202344e+05
    2.2985465825e-02    1.0149914844e+05
    2.3006917909e-02    1.0148943750e+05
    2.3028360680e-02    1.0148134375e+05
    2.3049792275e-02    1.0147094531e+05
    2.3071214557e-02    1.0145878906e+05
    2.3092625663e-02    1.0145496094e+05
    2.3114029318e-02    1.0144400781e+05
    2.3135419935e-02    1.0143858594e+05
    2.3156799376e-02    1.0142918750e+05
    2.3178169504e-02    1.0142147656e+05
    2.3199530318e-02    1.0141818750e+05
    2.3220879957e-02    1.0142067969e+05
    2.3242218420e-02    1.0142108594e+05
    2.3263547570e-02    1.0143141406e+05
    2.3284865543e-02    1.0143971875e+05
    2.3306174204e-02    1.0145364844e+05
    2.3327469826e-02    1.0146207031e+05
    2.3348756135e-02    1.0147974219e+05
    2.3370031267e-02    1.0149633594e+05
    2.3391297087e-02    1.0150958594e+05
    2.3412553594e-02    1.0153116406e+05
    2.3433798924e-02    1.0154883594e+05
    2.3455033079e-02    1.0157382031e+05
    2.3476256058e-02    1.0159933594e+05
    2.3497469723e-02    1.0162616406e+05
    2.3518672213e-02    1.0164187500e+05
    2.3539865389e-02    1.0166287500e+05
    2.3561049253e-02    1.0168038281e+05
    2.3582221940e-02    1.0170103125e+05
    2.3603385314e-02    1.0171627344e+05
    2.3624535650e-02    1.0173072656e+05
    2.3645676672e-02    1.0173952344e+05
    2.3666808382e-02    1.0175127344e+05
    2.3687927052e-02    1.0176222656e+05
    2.3709038273e-02    1.0177364844e+05
    2.3730138317e-02    1.0177941406e+05
    2.3751227185e-02    1.0178927344e+05
    2.3772306740e-02    1.0179883594e+05
    2.3793375120e-02    1.0180690625e+05
    2.3814432323e-02    1.0181388281e+05
    2.3835480213e-02    1.0182160156e+05
    2.3856516927e-02    1.0182815625e+05
    2.3877544329e-02    1.0183562500e+05
    2.3898560554e-02    1.0184289844e+05
    2.3919565603e-02    1.0184960156e+05
    2.3940561339e-02    1.0186387500e+05
    2.3961545900e-02    1.0187392969e+05
    2.3982519284e-02    1.0189008594e+05
    2.4003483355e-02    1.0189847656e+05
    2.4024436250e-02    1.0191558594e+05
    2.4045377970e-02    1.0192405469e+05
    2.4066310376e-02    1.0193974219e+05
    2.4087233469e-02    1.0195031250e+05
    2.4108145386e-02    1.0195789844e+05
    2.4129044265e-02    1.0197071875e+05
    2.4149935693e-02    1.0198275000e+05
    2.4170814082e-02    1.0199053906e+05
    2.4191683158e-02    1.0199327344e+05
    2.4212542921e-02    1.0200147656e+05
    2.4233391508e-02    1.0200435156e+05
    2.4254228920e-02    1.0201187500e+05
    2.4275057018e-02    1.0201427344e+05
    2.4295873940e-02    1.0202102344e+05
    2.4316681549e-02    1.0201702344e+05
    2.4337477982e-02    1.0200943750e+05
    2.4358265102e-02    1.0200182031e+05
    2.4379042909e-02    1.0199046094e+05
    2.4399809539e-02    1.0197689844e+05
    2.4420566857e-02    1.0195839844e+05
    2.4441312999e-02    1.0193683594e+05
    2.4462047964e-02    1.0190296875e+05
    2.4482775480e-02    1.0187218750e+05
    2.4503491819e-02    1.0183818750e+05
    2.4524198845e-02    1.0179838281e+05
    2.4544894695e-02    1.0176142969e+05
    2.4565581232e-02    1.0172111719e+05
    2.4586258456e-02    1.0167834375e+05
    2.4606924504e-02    1.0163766406e+05
    2.4627581239e-02    1.0159778906e+05
    2.4648228660e-02    1.0156547656e+05
    2.4668866768e-02    1.0154097656e+05
    2.4689495564e-02    1.0152569531e+05
    2.4710113183e-02    1.0151175000e+05
    2.4730721489e-02    1.0150557031e+05
    2.4751318619e-02    1.0151238281e+05
    2.4771906435e-02    1.0152524219e+05
    2.4792486802e-02    1.0154116406e+05
    2.4813055992e-02    1.0156652344e+05
    2.4833614007e-02    1.0159499219e+05
    2.4854162708e-02    1.0163146094e+05
    2.4874702096e-02    1.0167158594e+05
    2.4895232171e-02    1.0169708594e+05
    2.4915752932e-02    1.0173431250e+05
    2.4936262518e-02    1.0176447656e+05
    2.4956764653e-02    1.0179103125e+05
    2.4977253750e-02    1.0181869531e+05
    2.4997735396e-02    1.0184941406e+05
    2.5018205866e-02    1.0187405469e+05
    2.5038668886e-02    1.0190182031e+05
    2.5059120730e-02    1.0192202344e+05
    2.5079563260e-02    1.0194009375e+05
    2.5099996477e-02    1.0195810156e+05
    2.5120420381e-02    1.0197639844e+05
    2.5140833110e-02    1.0199402344e+05
    2.5161236525e-02    1.0201077344e+05
    2.5181630626e-02    1.0202790625e+05
    2.5202017277e-02    1.0203535156e+05
    2.5222390890e-02    1.0204553906e+05
    2.5242757052e-02    1.0205597656e+05
    2.5263112038e-02    1.0207057031e+05
    2.5283459574e-02    1.0208364844e+05
    2.5303795934e-02    1.0209228125e+05
    2.5324124843e-02    1.0210350000e+05
    2.5344440714e-02    1.0211344531e+05
    2.5364749134e-02    1.0211663281e+05
    2.5385048240e-02    1.0211527344e+05
    2.5405339897e-02    1.0211621875e+05
    2.5425618514e-02    1.0211838281e+05
    2.5445887819e-02    1.0212208594e+05
    2.5466147810e-02    1.0211834375e+05
    2.5486400351e-02    1.0211460156e+05
    2.5506639853e-02    1.0210908594e+05
    2.5526873767e-02    1.0209767969e+05
    2.5547094643e-02    1.0208594531e+05
    2.5567308068e-02    1.0207655469e+05
    2.5587510318e-02    1.0206832031e+05
    2.5607703254e-02    1.0206271094e+05
    2.5627886876e-02    1.0205984375e+05
    2.5648061186e-02    1.0204946875e+05
    2.5668226182e-02    1.0204103906e+05
    2.5688380003e-02    1.0203828906e+05
    2.5708526373e-02    1.0203181250e+05
    2.5728661567e-02    1.0202456250e+05
    2.5748789310e-02    1.0202177344e+05
    2.5768904015e-02    1.0202086719e+05
    2.5789011270e-02    1.0202505469e+05
    2.5809109211e-02    1.0202846875e+05
    2.5829195976e-02    1.0203010156e+05
    2.5849273428e-02    1.0203094531e+05
    2.5869343430e-02    1.0202505469e+05
    2.5889402255e-02    1.0203390625e+05
    2.5909451768e-02    1.0203739844e+05
    2.5929493830e-02    1.0203967969e+05
    2.5949522853e-02    1.0204106250e+05
    2.5969544426e-02    1.0204687500e+05
    2.5989556685e-02    1.0204878125e+05
    2.6009559631e-02    1.0204966406e+05
    2.6029553264e-02    1.0205135156e+05
    2.6049537584e-02    1.0205256250e+05
    2.6069512591e-02    1.0205843750e+05
    2.6089478284e-02    1.0205352344e+05
    2.6109432802e-02    1.0205153906e+05
    2.6129379869e-02    1.0204319531e+05
    2.6149315760e-02    1.0203874219e+05
    2.6169244200e-02    1.0203214844e+05
    2.6189163327e-02    1.0202142969e+05
    2.6209073141e-02    1.0201337500e+05
    2.6228975505e-02    1.0200189844e+05
    2.6248866692e-02    1.0199360156e+05
    2.6268748567e-02    1.0197943750e+05
    2.6288621128e-02    1.0196927344e+05
    2.6308484375e-02    1.0195778906e+05
    2.6328338310e-02    1.0194230469e+05
    2.6348184794e-02    1.0192641406e+05
    2.6368021965e-02    1.0191441406e+05
    2.6387847960e-02    1.0189769531e+05
    2.6407664642e-02    1.0188628906e+05
    2.6427472010e-02    1.0187196094e+05
    2.6447271928e-02    1.0186530469e+05
    2.6467062533e-02    1.0185516406e+05
    2.6486843824e-02    1.0184577344e+05
    2.6506617665e-02    1.0183660156e+05
    2.6526380330e-02    1.0183464844e+05
    2.6546133682e-02    1.0183330469e+05
    2.6565877721e-02    1.0183286719e+05
    2.6585612446e-02    1.0183414844e+05
    2.6605339721e-02    1.0183128906e+05
    2.6625057682e-02    1.0183966406e+05
    2.6644766331e-02    1.0184742969e+05
    2.6664465666e-02    1.0185075781e+05
    2.6684155688e-02    1.0186324219e+05
    2.6703836396e-02    1.0187002344e+05
    2.6723509654e-02    1.0188191406e+05
    2.6743173599e-02    1.0189196094e+05
    2.6762828231e-02    1.0190203125e+05
    2.6782475412e-02    1.0191353906e+05
    2.6802113280e-02    1.0192442969e+05
    2.6821739972e-02    1.0193486719e+05
    2.6841359213e-02    1.0194087500e+05
    2.6860967278e-02    1.0194584375e+05
    2.6880569756e-02    1.0195080469e+05
    2.6900164783e-02    1.0195590625e+05
    2.6919748634e-02    1.0195993750e+05
    2.6939325035e-02    1.0196628125e+05
    2.6958892122e-02    1.0196771875e+05
    2.6978449896e-02    1.0196994531e+05
    2.6997998357e-02    1.0197171875e+05
    2.7017539367e-02    1.0196906250e+05
    2.7037071064e-02    1.0196630469e+05
    2.7056595311e-02    1.0196621094e+05
    2.7076110244e-02    1.0196761719e+05
    2.7095617726e-02    1.0197118750e+05
    2.7115115896e-02    1.0196925000e+05
    2.7134604752e-02    1.0196994531e+05
    2.7154086158e-02    1.0196986719e+05
    2.7173558250e-02    1.0196503125e+05
    2.7193021029e-02    1.0196940625e+05
    2.7212476358e-02    1.0197334375e+05
    2.7231922373e-02    1.0197858594e+05
    2.7251357213e-02    1.0198272656e+05
    2.7270786464e-02    1.0198110156e+05
    2.7290204540e-02    1.0198546875e+05
    2.7309613302e-02    1.0199258594e+05
    2.7329014614e-02    1.0199641406e+05
    2.7348404750e-02    1.0200166406e+05
    2.7367785573e-02    1.0200594531e+05
    2.7387158945e-02    1.0200918750e+05
    2.7406521142e-02    1.0201381250e+05
    2.7425874025e-02    1.0201731250e+05
    2.7445219457e-02    1.0202317969e+05
    2.7464553714e-02    1.0202621875e+05
    2.7483878657e-02    1.0202927344e+05
    2.7503194287e-02    1.0203283594e+05
    2.7522502467e-02    1.0203514844e+05
    2.7541799471e-02    1.0203716406e+05
    2.7561087161e-02    1.0203878906e+05
    2.7580365539e-02    1.0203122656e+05
    2.7599634603e-02    1.0203239844e+05
    2.7618894354e-02    1.0202825000e+05
    2.7638144791e-02    1.0202722656e+05
    2.7657385916e-02    1.0202885156e+05
    2.7676619589e-02    1.0203030469e+05
    2.7695843950e-02    1.0202864844e+05
    2.7715058997e-02    1.0202438281e+05
    2.7734262869e-02    1.0201834375e+05
    2.7753459290e-02    1.0201891406e+05
    2.7772648260e-02    1.0201758594e+05
    2.7791827917e-02    1.0201227344e+05
    2.7810998261e-02    1.0201528125e+05
    2.7830159292e-02    1.0201568750e+05
    2.7849311009e-02    1.0201396094e+05
    2.7868455276e-02    1.0201488281e+05
    2.7887590230e-02    1.0201956250e+05
    2.7906717733e-02    1.0202578906e+05
    2.7925835922e-02    1.0202614844e+05
    2.7944946662e-02    1.0201771875e+05
    2.7964048088e-02    1.0201821094e+05
    2.7983140200e-02    1.0201828906e+05
    2.8002224863e-02    1.0202778906e+05
    2.8021300212e-02    1.0202842969e+05
    2.8040368110e-02    1.0203046094e+05
    2.8059426695e-02    1.0203133594e+05
    2.8078475967e-02    1.0203185156e+05
    2.8097519651e-02    1.0202760156e+05
    2.8116554022e-02    1.0202803906e+05
    2.8135580942e-02    1.0203414844e+05
    2.8154598549e-02    1.0203381250e+05
    2.8173606843e-02    1.0203631250e+05
    2.8192607686e-02    1.0203736719e+05
    2.8211599216e-02    1.0204478906e+05
    2.8230583295e-02    1.0204135156e+05
    2.8249559924e-02    1.0204425000e+05
    2.8268527240e-02    1.0205058594e+05
    2.8287487105e-02    1.0205365625e+05
    2.8306435794e-02    1.0205055469e+05
    2.8325378895e-02    1.0205203125e+05
    2.8344312683e-02    1.0205414844e+05
    2.8363237157e-02    1.0205496875e+05
    2.8382156044e-02    1.0205671875e+05
    2.8401065618e-02    1.0205788281e+05
    2.8419965878e-02    1.0205967969e+05
    2.8438858688e-02    1.0206111719e+05
    2.8457742184e-02    1.0206378125e+05
    2.8476616368e-02    1.0206531250e+05
    2.8495483100e-02    1.0206689844e+05
    2.8514338657e-02    1.0206840625e+05
    2.8533160686e-02    1.0207002344e+05
    2.8551930562e-02    1.0207292969e+05
    2.8570635244e-02    1.0207228906e+05
    2.8589271009e-02    1.0207382031e+05
    2.8607837856e-02    1.0207397656e+05
    2.8626350686e-02    1.0207053125e+05
    2.8644818813e-02    1.0206553906e+05
    2.8663259000e-02    1.0206559375e+05
    2.8681686148e-02    1.0206911719e+05
    2.8700113297e-02    1.0207533594e+05
    2.8718546033e-02    1.0207577344e+05
    2.8736986220e-02    1.0206682031e+05
    2.8755431995e-02    1.0206700000e+05
    2.8773877770e-02    1.0206725781e+05
    2.8792314231e-02    1.0206868750e+05
    2.8810730204e-02    1.0206677344e+05
    2.8829116374e-02    1.0206722656e+05
    2.8847465292e-02    1.0206774219e+05
    2.8865773231e-02    1.0207428906e+05
    2.8884036466e-02    1.0207261719e+05
    2.8902258724e-02    1.0207144531e+05
    2.8920443729e-02    1.0207378906e+05
    2.8938598931e-02    1.0207339844e+05
    2.8956729919e-02    1.0207296094e+05
    2.8974846005e-02    1.0207840625e+05
    2.8992949054e-02    1.0207447656e+05
    2.9011042789e-02    1.0207521094e+05
    2.9029129073e-02    1.0207718750e+05
    2.9047204182e-02    1.0208728125e+05
    2.9065268114e-02    1.0207896094e+05
    2.9083315283e-02    1.0207974219e+05
    2.9101338238e-02    1.0208052344e+05
    2.9119335115e-02    1.0208136719e+05
    2.9137304053e-02    1.0209149219e+05
    2.9155241325e-02    1.0208332031e+05
    2.9173148796e-02    1.0208425781e+05
    2.9191024601e-02    1.0208497656e+05
    2.9208874330e-02    1.0208609375e+05
    2.9226697981e-02    1.0208596094e+05
    2.9244501144e-02    1.0208559375e+05
    2.9262285680e-02    1.0208508594e+05
    2.9280053452e-02    1.0208508594e+05
    2.9297806323e-02    1.0208049219e+05
    2.9315544292e-02    1.0208485156e+05
    2.9333265498e-02    1.0208603125e+05
    2.9350971803e-02    1.0208614844e+05
    2.9368655756e-02    1.0208627344e+05
    2.9386319220e-02    1.0208649219e+05
    2.9403960332e-02    1.0208691406e+05
    2.9421577230e-02    1.0208753125e+05
    2.9439168051e-02    1.0208950000e+05
    2.9456734657e-02    1.0209052344e+05
    2.9474277049e-02    1.0209733594e+05
    2.9491795227e-02    1.0209975000e+05
    2.9509292915e-02    1.0209644531e+05
    2.9526771978e-02    1.0210050000e+05
    2.9544232413e-02    1.0209983594e+05
    2.9561674222e-02    1.0209741406e+05
    2.9579099268e-02    1.0210421875e+05
    2.9596509412e-02    1.0210656250e+05
    2.9613900930e-02    1.0210778906e+05
    2.9631273821e-02    1.0210511719e+05
    2.9648626223e-02    1.0210814844e+05
    2.9665958136e-02    1.0211171094e+05
    2.9683271423e-02    1.0211296094e+05
    2.9700560495e-02    1.0211765625e+05
    2.9717829078e-02    1.0211886719e+05
    2.9735075310e-02    1.0211835156e+05
    2.9752301052e-02    1.0211575000e+05
    2.9769508168e-02    1.0212156250e+05
    2.9786696658e-02    1.0212409375e+05
    2.9803866521e-02    1.0212550000e+05
    2.9821017757e-02    1.0212691406e+05
    2.9838152230e-02    1.0212549219e+05
    2.9855269939e-02    1.0212868750e+05
    2.9872370884e-02    1.0213028125e+05
    2.9889453202e-02    1.0213184375e+05
    2.9906518757e-02    1.0213333594e+05
    2.9923565686e-02    1.0213027344e+05
    2.9940593988e-02    1.0213178125e+05
    2.9957601801e-02    1.0213944531e+05
    2.9974590987e-02    1.0213275781e+05
    2.9991561547e-02    1.0213586719e+05
    3.0008511618e-02    1.0213489844e+05
    3.0025444925e-02    1.0214008594e+05
    3.0042361468e-02    1.0213837500e+05
    3.0059259385e-02    1.0213353906e+05
    3.0076142401e-02    1.0213557031e+05
    3.0093006790e-02    1.0213589844e+05
    3.0109854415e-02    1.0213736719e+05
    3.0126683414e-02    1.0213932031e+05
    3.0143497512e-02    1.0213885156e+05
    3.0160292983e-02    1.0213819531e+05
    3.0177071691e-02    1.0213497656e+05
    3.0193833634e-02    1.0212958594e+05
    3.0210576952e-02    1.0212857031e+05
    3.0227303505e-02    1.0212433594e+05
    3.0244011432e-02    1.0211992969e+05
    3.0260702595e-02    1.0211639844e+05
    3.0277376994e-02    1.0211369531e+05
    3.0294034630e-02    1.0211186719e+05
    3.0310675502e-02    1.0210064844e+05
    3.0327299610e-02    1.0209950000e+05
    3.0343905091e-02    1.0209706250e+05
    3.0360495672e-02    1.0208639844e+05
    3.0377071351e-02    1.0208358594e+05
    3.0393628404e-02    1.0208072656e+05
    3.0410168692e-02    1.0207782031e+05
    3.0426690355e-02    1.0207375000e+05
    3.0443195254e-02    1.0207059375e+05
    3.0459685251e-02    1.0206471094e+05
    3.0476156622e-02    1.0205385156e+05
    3.0492611229e-02    1.0204939844e+05
    3.0509050936e-02    1.0204127344e+05
    3.0525473878e-02    1.0203671875e+05
    3.0541881919e-02    1.0203087500e+05
    3.0558273196e-02    1.0203086719e+05
    3.0574647710e-02    1.0202716406e+05
    3.0591005459e-02    1.0202340625e+05
    3.0607348308e-02    1.0202875000e+05
    3.0623674393e-02    1.0202708594e+05
    3.0639985576e-02    1.0202475000e+05
    3.0656279996e-02    1.0203203125e+05
    3.0672557652e-02    1.0203166406e+05
    3.0688818544e-02    1.0203982031e+05
    3.0705062672e-02    1.0203937500e+05
    3.0721291900e-02    1.0204987500e+05
    3.0737506226e-02    1.0205543750e+05
    3.0753703788e-02    1.0206631250e+05
    3.0769886449e-02    1.0207439844e+05
    3.0786054209e-02    1.0208666406e+05
    3.0802207068e-02    1.0209022656e+05
    3.0818343163e-02    1.0209658594e+05
    3.0834466219e-02    1.0210827344e+05
    3.0850572512e-02    1.0211335156e+05
    3.0866663903e-02    1.0211696094e+05
    3.0882738531e-02    1.0212249219e+05
    3.0898798257e-02    1.0213752344e+05
    3.0914843082e-02    1.0214290625e+05
    3.0930871144e-02    1.0214586719e+05
    3.0946886167e-02    1.0214418750e+05
    3.0962884426e-02    1.0214921094e+05
    3.0978867784e-02    1.0215427344e+05
    3.0994836241e-02    1.0216052344e+05
    3.1010789797e-02    1.0216553125e+05
    3.1026728451e-02    1.0217046875e+05
    3.1042650342e-02    1.0217415625e+05
    3.1058559194e-02    1.0217740625e+05
    3.1074455008e-02    1.0217466406e+05
    3.1090334058e-02    1.0217814844e+05
    3.1106200069e-02    1.0217193750e+05
    3.1122051179e-02    1.0217560156e+05
    3.1137887388e-02    1.0216740625e+05
    3.1153710559e-02    1.0216921875e+05
    3.1169516966e-02    1.0216977344e+05
    3.1185310334e-02    1.0217253906e+05
    3.1201090664e-02    1.0217290625e+05
    3.1216854230e-02    1.0217416406e+05
    3.1232602894e-02    1.0216532031e+05
    3.1248336658e-02    1.0216641406e+05
    3.1264055520e-02    1.0216552344e+05
    3.1279761344e-02    1.0215512500e+05
    3.1295452267e-02    1.0215487500e+05
    3.1311132014e-02    1.0215457031e+05
    3.1326796860e-02    1.0215415625e+05
    3.1342446804e-02    1.0215352344e+05
    3.1358085573e-02    1.0214911719e+05
    3.1373709440e-02    1.0214075000e+05
    3.1389318407e-02    1.0213764844e+05
    3.1404916197e-02    1.0212846094e+05
    3.1420499086e-02    1.0212235156e+05
    3.1436067075e-02    1.0212092969e+05
    3.1451620162e-02    1.0211847656e+05
    3.1467158347e-02    1.0212542969e+05
    3.1482685357e-02    1.0212228906e+05
    3.1498193741e-02    1.0211985156e+05
    3.1513694674e-02    1.0211815625e+05
    3.1529176980e-02    1.0212060156e+05
    3.1544648111e-02    1.0211780469e+05
    3.1560108066e-02    1.0211396875e+05
    3.1575553119e-02    1.0211250000e+05
    3.1590986997e-02    1.0211110156e+05
    3.1606405973e-02    1.0211214844e+05
    3.1621813774e-02    1.0211621875e+05
    3.1637206674e-02    1.0211867969e+05
    3.1652588397e-02    1.0211821875e+05
    3.1667951494e-02    1.0211258594e+05
    3.1683307141e-02    1.0210550781e+05
    3.1698647887e-02    1.0210425781e+05
    3.1713977456e-02    1.0210310156e+05
    3.1729292125e-02    1.0211243750e+05
    3.1744595617e-02    1.0210686719e+05
    3.1759884208e-02    1.0210712500e+05
    3.1775161624e-02    1.0210166406e+05
    3.1790427864e-02    1.0210183594e+05
    3.1805675477e-02    1.0210203125e+05
    3.1820915639e-02    1.0210061719e+05
    3.1836140901e-02    1.0210177344e+05
    3.1851354986e-02    1.0210821094e+05
    3.1866557896e-02    1.0210783594e+05
    3.1881745905e-02    1.0210793750e+05
    3.1896922737e-02    1.0210800000e+05
    3.1912088394e-02    1.0210391406e+05
    3.1927239150e-02    1.0210333594e+05
    3.1942378730e-02    1.0210289844e+05
    3.1957507133e-02    1.0210725781e+05
    3.1972620636e-02    1.0210709375e+05
    3.1987726688e-02    1.0210709375e+05
    3.2002814114e-02    1.0210727344e+05
    3.2017890364e-02    1.0210763281e+05
    3.2032959163e-02    1.0211291406e+05
    3.2048013061e-02    1.0211246094e+05
    3.2063052058e-02    1.0211310156e+05
    3.2078083605e-02    1.0210839844e+05
    3.2093103975e-02    1.0210937500e+05
    3.2108109444e-02    1.0210967969e+05
    3.2123107463e-02    1.0210880469e+05
    3.2138090581e-02    1.0210910156e+05
    3.2153062522e-02    1.0210947656e+05
    3.2168023288e-02    1.0210868750e+05
    3.2182972878e-02    1.0210906250e+05
    3.2197911292e-02    1.0211416406e+05
    3.2212834805e-02    1.0211672656e+05
    3.2227750868e-02    1.0211544531e+05
    3.2242652029e-02    1.0211422656e+05
    3.2257542014e-02    1.0211653906e+05
    3.2272424549e-02    1.0211641406e+05
    3.2287292182e-02    1.0211964844e+05
    3.2302148640e-02    1.0212175781e+05
    3.2316997647e-02    1.0211878906e+05
    3.2331831753e-02    1.0211578125e+05
    3.2346658409e-02    1.0212299219e+05
    3.2361470163e-02    1.0211532031e+05
    3.2376270741e-02    1.0211453906e+05
    3.2391063869e-02    1.0211603906e+05
    3.2405842096e-02    1.0211647656e+05
    3.2420612872e-02    1.0211862500e+05
    3.2435368747e-02    1.0212094531e+05
    3.2450113446e-02    1.0212167969e+05
    3.2464850694e-02    1.0212108594e+05
    3.2479573041e-02    1.0212160156e+05
    3.2494287938e-02    1.0211991406e+05
    3.2508991659e-02    1.0212165625e+05
    3.2523684204e-02    1.0212505469e+05
    3.2538365573e-02    1.0212228125e+05
    3.2553035766e-02    1.0212460156e+05
    3.2567698509e-02    1.0212746094e+05
    3.2582346350e-02    1.0212564844e+05
    3.2596986741e-02    1.0212367969e+05
    3.2611619681e-02    1.0212403906e+05
    3.2626237720e-02    1.0212431250e+05
    3.2640848309e-02    1.0212516406e+05
    3.2655447721e-02    1.0212578906e+05
    3.2670035958e-02    1.0212562500e+05
    3.2684613019e-02    1.0211964844e+05
    3.2699178904e-02    1.0211447656e+05
    3.2713737339e-02    1.0211400000e+05
    3.2728284597e-02    1.0211814844e+05
    3.2742820680e-02    1.0212265625e+05
    3.2757349312e-02    1.0212266406e+05
    3.2771866769e-02    1.0212259375e+05
    3.2786373049e-02    1.0211906250e+05
    3.2800871879e-02    1.0211396094e+05
    3.2815355808e-02    1.0211336719e+05
    3.2829832286e-02    1.0211208594e+05
    3.2844301313e-02    1.0211074219e+05
    3.2858755440e-02    1.0211008594e+05
    3.2873202115e-02    1.0211399219e+05
    3.2887637615e-02    1.0211469531e+05
    3.2902065665e-02    1.0211677344e+05
    3.2916482538e-02    1.0211418750e+05
    3.2930891961e-02    1.0210914844e+05
    3.2945290208e-02    1.0210821094e+05
    3.2959677279e-02    1.0210783594e+05
    3.2974056900e-02    1.0210799219e+05
    3.2988425344e-02    1.0210753906e+05
    3.3002786338e-02    1.0210697656e+05
    3.3017136157e-02    1.0210621094e+05
    3.3031478524e-02    1.0210530469e+05
    3.3045809716e-02    1.0210027344e+05
    3.3060129732e-02    1.0209491406e+05
    3.3074442297e-02    1.0209253125e+05
    3.3088747412e-02    1.0209484375e+05
    3.3103041351e-02    1.0210096094e+05
    3.3117324114e-02    1.0210036719e+05
    3.3131599426e-02    1.0209992969e+05
    3.3145863563e-02    1.0209964844e+05
    3.3160120249e-02    1.0210009375e+05
    3.3174365759e-02    1.0210053125e+05
    3.3188603818e-02    1.0209915625e+05
    3.3202830702e-02    1.0209990625e+05
    3.3217050135e-02    1.0209817969e+05
    3.3231258392e-02    1.0209289844e+05
    3.3245459199e-02    1.0209296094e+05
    3.3259648830e-02    1.0208586719e+05
    3.3273831010e-02    1.0208900000e+05
    3.3288005739e-02    1.0208941406e+05
    3.3302169293e-02    1.0209166406e+05
    3.3316325396e-02    1.0208603906e+05
    3.3330474049e-02    1.0208438281e+05
    3.3344611526e-02    1.0208561719e+05
    3.3358741552e-02    1.0208684375e+05
    3.3372864127e-02    1.0208371875e+05
    3.3386975527e-02    1.0208000781e+05
    3.3401079476e-02    1.0208372656e+05
    3.3415172249e-02    1.0208072656e+05
    3.3429257572e-02    1.0208059375e+05
    3.3443335444e-02    1.0207752344e+05
    3.3457405865e-02    1.0207457031e+05
    3.3471468836e-02    1.0207635156e+05
    3.3485524356e-02    1.0207802344e+05
    3.3499568701e-02    1.0207972656e+05
    3.3513605595e-02    1.0208028906e+05
    3.3527631313e-02    1.0207268750e+05
    3.3541653305e-02    1.0206966406e+05
    3.3555664122e-02    1.0207458594e+05
    3.3569667488e-02    1.0207587500e+05
    3.3583663404e-02    1.0206675781e+05
    3.3597648144e-02    1.0206313281e+05
    3.3611625433e-02    1.0206065625e+05
    3.3625595272e-02    1.0206225781e+05
    3.3639557660e-02    1.0206156250e+05
    3.3653512597e-02    1.0205917969e+05
    3.3667460084e-02    1.0205810156e+05
    3.3681396395e-02    1.0205707031e+05
    3.3695328981e-02    1.0205722656e+05
    3.3709254116e-02    1.0205627344e+05
    3.3723168075e-02    1.0205530469e+05
    3.3737078309e-02    1.0205371875e+05
    3.3750977367e-02    1.0205197656e+05
    3.3764872700e-02    1.0205064844e+05
    3.3778760582e-02    1.0204843750e+05
    3.3792637289e-02    1.0203680469e+05
    3.3806510270e-02    1.0203467969e+05
    3.3820372075e-02    1.0203246875e+05
    3.3834230155e-02    1.0203139844e+05
    3.3848077059e-02    1.0202924219e+05
    3.3861916512e-02    1.0202728906e+05
    3.3875752240e-02    1.0203355469e+05
    3.3889576793e-02    1.0203196094e+05
    3.3903393894e-02    1.0203043750e+05
    3.3917203546e-02    1.0203003906e+05
    3.3931009471e-02    1.0202841406e+05
    3.3944804221e-02    1.0201739844e+05
    3.3958595246e-02    1.0201541406e+05
    3.3972378820e-02    1.0201228125e+05
    3.3986151218e-02    1.0201318750e+05
    3.3999919891e-02    1.0201297656e+05
    3.4013681114e-02    1.0200633594e+05
    3.4027434886e-02    1.0200446094e+05
    3.4041177481e-02    1.0200266406e+05
    3.4054916352e-02    1.0200325781e+05
    3.4068647772e-02    1.0200969531e+05
    3.4082375467e-02    1.0199778125e+05
    3.4096091986e-02    1.0199616406e+05
    3.4109804779e-02    1.0199566406e+05
    3.4123510122e-02    1.0199528125e+05
    3.4137208015e-02    1.0199421875e+05
    3.4150898457e-02    1.0199093750e+05
    3.4164581448e-02    1.0199275781e+05
    3.4178260714e-02    1.0199006250e+05
    3.4191932529e-02    1.0198608594e+05
    3.4205596894e-02    1.0198324219e+05
    3.4219253808e-02    1.0198275781e+05
    3.4232903272e-02    1.0198114844e+05
    3.4246545285e-02    1.0198066406e+05
    3.4260183573e-02    1.0197796094e+05
    3.4273810685e-02    1.0197640625e+05
    3.4287434071e-02    1.0197485156e+05
    3.4301050007e-02    1.0197319531e+05
    3.4314658493e-02    1.0197269531e+05
    3.4328263253e-02    1.0197097656e+05
    3.4341860563e-02    1.0196928906e+05
    3.4355450422e-02    1.0196753125e+05
    3.4369036555e-02    1.0196459375e+05
    3.4382611513e-02    1.0196391406e+05
    3.4396182746e-02    1.0196089844e+05
    3.4409742802e-02    1.0195900000e+05
    3.4423299134e-02    1.0195715625e+05
    3.4436848015e-02    1.0195639844e+05
    3.4450393170e-02    1.0195507031e+05
    3.4463927150e-02    1.0195153906e+05
    3.4477461129e-02    1.0195189844e+05
    3.4490987659e-02    1.0194990625e+05
    3.4504506737e-02    1.0194671094e+05
    3.4518022090e-02    1.0194228906e+05
    3.4531529993e-02    1.0194250000e+05
    3.4545030445e-02    1.0194047656e+05
    3.4558523446e-02    1.0193965625e+05
    3.4572008997e-02    1.0193771875e+05
    3.4585487098e-02    1.0193587500e+05
    3.4598957747e-02    1.0193408594e+05
    3.4612424672e-02    1.0193234375e+05
    3.4625884145e-02    1.0193067969e+05
    3.4639336169e-02    1.0192909375e+05
    3.4652780741e-02    1.0192758594e+05
    3.4666225314e-02    1.0192616406e+05
    3.4679658711e-02    1.0192588281e+05
    3.4693088382e-02    1.0192443750e+05
    3.4706510603e-02    1.0192222656e+05
    3.4719929099e-02    1.0192052344e+05
    3.4733340144e-02    1.0191414844e+05
    3.4746743739e-02    1.0191150000e+05
    3.4760143608e-02    1.0190460156e+05
    3.4773536026e-02    1.0190233594e+05
    3.4786924720e-02    1.0190013281e+05
    3.4800305963e-02    1.0190259375e+05
    3.4813679755e-02    1.0190632031e+05
    3.4827046096e-02    1.0190216406e+05
    3.4840408713e-02    1.0189683594e+05
    3.4853763878e-02    1.0189255469e+05
    3.4867111593e-02    1.0188947656e+05
    3.4880455583e-02    1.0189433594e+05
    3.4893795848e-02    1.0188883594e+05
    3.4907124937e-02    1.0188122656e+05
    3.4920454025e-02    1.0187978906e+05
    3.4933775663e-02    1.0188700781e+05
    3.4947093576e-02    1.0187541406e+05
    3.4960404038e-02    1.0187460156e+05
    3.4973710775e-02    1.0187146094e+05
    3.4987010062e-02    1.0187057031e+05
endcurve
