Curveplot
LS-DYNA keyword deck by LS-PrePost                          
Time
Pressure
Defined Connection
Pressure @ 57 #pts=1745
* Minval=     9.9667492188e+04 at time=         0.0158980843
* Maxval=     1.6895421875e+05 at time=         0.0068069072
    0.0000000000e+00    9.9998710938e+04
    3.3812357287e-05    9.9998710938e+04
    6.1326652940e-05    9.9997757812e+04
    8.9102875791e-05    9.9997835938e+04
    1.1682785407e-04    1.0000021875e+05
    1.4461828687e-04    9.9999367188e+04
    1.7236733402e-04    9.9998656250e+04
    2.0016246708e-04    1.0000828906e+05
    2.2795486439e-04    9.9999648438e+04
    2.5574557367e-04    1.0000078906e+05
    2.8353667585e-04    1.0000172656e+05
    3.1133697485e-04    9.9989976562e+04
    3.3912662184e-04    9.9998968750e+04
    3.6691734567e-04    1.0000031250e+05
    3.9470891352e-04    1.0000083594e+05
    4.2249175021e-04    1.0000596094e+05
    4.5027161832e-04    1.0000187500e+05
    4.7804549104e-04    9.9997375000e+04
    5.0581363030e-04    1.0000196094e+05
    5.3357944125e-04    1.0000092969e+05
    5.6134146871e-04    1.0000122656e+05
    5.8909942163e-04    1.0000159375e+05
    6.1685312539e-04    9.9992093750e+04
    6.4460188150e-04    1.0000028906e+05
    6.7234638846e-04    1.0000163281e+05
    7.0008635521e-04    1.0000202344e+05
    7.2782178177e-04    1.0000316406e+05
    7.5555208605e-04    1.0000197656e+05
    7.8327720985e-04    1.0000114844e+05
    8.1099680392e-04    1.0000052344e+05
    8.3871174138e-04    1.0000146875e+05
    8.6642213864e-04    1.0000108594e+05
    8.9412782108e-04    9.9991648438e+04
    9.2182843946e-04    9.9994476562e+04
    9.4952445943e-04    1.0000069531e+05
    9.7721535712e-04    1.0000150781e+05
    1.0049008997e-03    1.0000239844e+05
    1.0325826006e-03    1.0000447656e+05
    1.0602590628e-03    1.0000280469e+05
    1.0879321489e-03    1.0000444531e+05
    1.1155996472e-03    1.0000222656e+05
    1.1432634201e-03    9.9993718750e+04
    1.1709230021e-03    9.9992093750e+04
    1.1985785095e-03    9.9997960938e+04
    1.2262313394e-03    1.0000128125e+05
    1.2538790470e-03    1.0000994531e+05
    1.2815232622e-03    1.0000332031e+05
    1.3091630535e-03    1.0000269531e+05
    1.3368004002e-03    9.9994742188e+04
    1.3644339051e-03    1.0000936719e+05
    1.3920635683e-03    1.0002569531e+05
    1.4196902048e-03    1.0005524219e+05
    1.4473132323e-03    1.0011090625e+05
    1.4749332331e-03    1.0019052344e+05
    1.5025498578e-03    1.0032263281e+05
    1.5301633393e-03    1.0051215625e+05
    1.5577742597e-03    1.0077177344e+05
    1.5853822697e-03    1.0109818750e+05
    1.6129877185e-03    1.0147321094e+05
    1.6405890929e-03    1.0186096875e+05
    1.6681876732e-03    1.0224934375e+05
    1.6957829939e-03    1.0259591406e+05
    1.7233766848e-03    1.0287261719e+05
    1.7509678146e-03    1.0305564844e+05
    1.7785291420e-03    1.0313655469e+05
    1.8060547300e-03    1.0313807031e+05
    1.8335470231e-03    1.0305360156e+05
    1.8610082334e-03    1.0291808594e+05
    1.8884401070e-03    1.0275365625e+05
    1.9158447394e-03    1.0258108594e+05
    1.9432241097e-03    1.0241761719e+05
    1.9705800805e-03    1.0229314844e+05
    1.9979148638e-03    1.0221597656e+05
    2.0252298564e-03    1.0219335156e+05
    2.0525271539e-03    1.0221400000e+05
    2.0798076876e-03    1.0227064844e+05
    2.1070730872e-03    1.0234556250e+05
    2.1343247499e-03    1.0242114844e+05
    2.1615643054e-03    1.0247843750e+05
    2.1887931507e-03    1.0252256250e+05
    2.2160108201e-03    1.0254240625e+05
    2.2432196420e-03    1.0253878125e+05
    2.2704207804e-03    1.0251878906e+05
    2.2976147011e-03    1.0248438281e+05
    2.3248014040e-03    1.0244433594e+05
    2.3519827519e-03    1.0241528125e+05
    2.3791582789e-03    1.0238928906e+05
    2.4063293822e-03    1.0238336719e+05
    2.4334960617e-03    1.0238931250e+05
    2.4606597144e-03    1.0240181250e+05
    2.4878205732e-03    1.0241446875e+05
    2.5149781723e-03    1.0242928125e+05
    2.5421329774e-03    1.0243733594e+05
    2.5692859199e-03    1.0243963281e+05
    2.5964374654e-03    1.0244728906e+05
    2.6235871483e-03    1.0244067969e+05
    2.6507352013e-03    1.0243500781e+05
    2.6778825559e-03    1.0243091406e+05
    2.7050296776e-03    1.0242288281e+05
    2.7321761008e-03    1.0242109375e+05
    2.7593218256e-03    1.0242161719e+05
    2.7864677832e-03    1.0242038281e+05
    2.8136142064e-03    1.0242253906e+05
    2.8407603968e-03    1.0242652344e+05
    2.8679079842e-03    1.0243915625e+05
    2.8950548731e-03    1.0246127344e+05
    2.9222022276e-03    1.0248916406e+05
    2.9493502807e-03    1.0252480469e+05
    2.9764990322e-03    1.0257146094e+05
    3.0036487151e-03    1.0264671094e+05
    3.0307997949e-03    1.0271678906e+05
    3.0579508748e-03    1.0281260156e+05
    3.0851035845e-03    1.0291617969e+05
    3.1122572254e-03    1.0302677344e+05
    3.1394117977e-03    1.0312212500e+05
    3.1665677670e-03    1.0319646875e+05
    3.1937246677e-03    1.0326034375e+05
    3.2208829653e-03    1.0330236719e+05
    3.2480424270e-03    1.0331372656e+05
    3.2752046827e-03    1.0329827344e+05
    3.2952371985e-03    1.0325535156e+05
    3.3145032357e-03    1.0321825781e+05
    3.3336398192e-03    1.0318046094e+05
    3.3528339118e-03    1.0314233594e+05
    3.3720366191e-03    1.0310803906e+05
    3.3912549261e-03    1.0306500000e+05
    3.4104890656e-03    1.0302497656e+05
    3.4297339153e-03    1.0297319531e+05
    3.4486323129e-03    1.0292335156e+05
    3.4671388566e-03    1.0287765625e+05
    3.4854323603e-03    1.0282255469e+05
    3.5036695190e-03    1.0276972656e+05
    3.5219141282e-03    1.0270809375e+05
    3.5401545465e-03    1.0264255469e+05
    3.5583588760e-03    1.0257061719e+05
    3.5765271168e-03    1.0249896094e+05
    3.5946895368e-03    1.0242671875e+05
    3.6139658187e-03    1.0236330469e+05
    3.6330535077e-03    1.0231297656e+05
    3.6521453876e-03    1.0227250781e+05
    3.6699753255e-03    1.0224983594e+05
    3.6875614896e-03    1.0223025781e+05
    3.7050142419e-03    1.0221925000e+05
    3.7224807311e-03    1.0220152344e+05
    3.7400643341e-03    1.0218975000e+05
    3.7577797193e-03    1.0217035156e+05
    3.7755726371e-03    1.0215250000e+05
    3.7933769636e-03    1.0214547656e+05
    3.8111612666e-03    1.0213110156e+05
    3.8289318327e-03    1.0212769531e+05
    3.8467168342e-03    1.0212612500e+05
    3.8645383902e-03    1.0212603906e+05
    3.8824023213e-03    1.0211749219e+05
    3.9002960548e-03    1.0210009375e+05
    3.9182156324e-03    1.0208278125e+05
    3.9361710660e-03    1.0206424219e+05
    3.9541716687e-03    1.0204705469e+05
    3.9733103476e-03    1.0203991406e+05
    3.9924201556e-03    1.0202402344e+05
    4.0104058571e-03    1.0200711719e+05
    4.0284004062e-03    1.0199856250e+05
    4.0464363992e-03    1.0198521875e+05
    4.0656095371e-03    1.0196960156e+05
    4.0847789496e-03    1.0196377344e+05
    4.1039343923e-03    1.0195591406e+05
    4.1219722480e-03    1.0194793750e+05
    4.1400394402e-03    1.0194547656e+05
    4.1591953486e-03    1.0193850000e+05
    4.1784178466e-03    1.0193178906e+05
    4.1976389475e-03    1.0192137500e+05
    4.2168586515e-03    1.0192025000e+05
    4.2360713705e-03    1.0191134375e+05
    4.2552771047e-03    1.0190118750e+05
    4.2744791135e-03    1.0189047656e+05
    4.2936825193e-03    1.0187906250e+05
    4.3128933758e-03    1.0186683594e+05
    4.3321144767e-03    1.0185130469e+05
    4.3513495475e-03    1.0183919531e+05
    4.3705995195e-03    1.0182332031e+05
    4.3898657896e-03    1.0180541406e+05
    4.4091497548e-03    1.0177934375e+05
    4.4284537435e-03    1.0175097656e+05
    4.4477786869e-03    1.0171608594e+05
    4.4671236537e-03    1.0166664844e+05
    4.4864914380e-03    1.0161810156e+05
    4.5058806427e-03    1.0155521094e+05
    4.5252908021e-03    1.0148308594e+05
    4.5447219163e-03    1.0141543750e+05
    4.5641721226e-03    1.0132110156e+05
    4.5836409554e-03    1.0122362500e+05
    4.6031279489e-03    1.0110961719e+05
    4.6226321720e-03    1.0098878906e+05
    4.6421540901e-03    1.0086165625e+05
    4.6616927721e-03    1.0073707031e+05
    4.6812482178e-03    1.0061215625e+05
    4.7008208930e-03    1.0050318750e+05
    4.7204112634e-03    1.0039578125e+05
    4.7400193289e-03    1.0030783594e+05
    4.7596455552e-03    1.0022864844e+05
    4.7792894766e-03    1.0017443750e+05
    4.7989510931e-03    1.0014663281e+05
    4.8186304048e-03    1.0013836719e+05
    4.8383255489e-03    1.0015446094e+05
    4.8580355942e-03    1.0019018750e+05
    4.8777610064e-03    1.0023902344e+05
    4.8975008540e-03    1.0029213281e+05
    4.9172551371e-03    1.0034785156e+05
    4.9370229244e-03    1.0040794531e+05
    4.9568060786e-03    1.0046825000e+05
    4.9766036682e-03    1.0053074219e+05
    4.9964170903e-03    1.0057485156e+05
    5.0162458792e-03    1.0061438281e+05
    5.0360900350e-03    1.0064916406e+05
    5.0559476949e-03    1.0066617969e+05
    5.0758207217e-03    1.0067894531e+05
    5.0957072526e-03    1.0068028906e+05
    5.1156077534e-03    1.0067658594e+05
    5.1355226897e-03    1.0066458594e+05
    5.1554525271e-03    1.0064931250e+05
    5.1753963344e-03    1.0062994531e+05
    5.1953555085e-03    1.0061483594e+05
    5.2153295837e-03    1.0059839844e+05
    5.2353194915e-03    1.0058660156e+05
    5.2553247660e-03    1.0057750781e+05
    5.2753463387e-03    1.0057484375e+05
    5.2953832783e-03    1.0057599219e+05
    5.3154369816e-03    1.0057800000e+05
    5.3355065174e-03    1.0058049219e+05
    5.3555918857e-03    1.0059125000e+05
    5.3756926209e-03    1.0059880469e+05
    5.3958082572e-03    1.0061521875e+05
    5.4159392603e-03    1.0062439844e+05
    5.4360851645e-03    1.0063753906e+05
    5.4562464356e-03    1.0064916406e+05
    5.4764230736e-03    1.0065727344e+05
    5.4966160096e-03    1.0066446094e+05
    5.5168238468e-03    1.0066621875e+05
    5.5370470509e-03    1.0067166406e+05
    5.5572865531e-03    1.0067421875e+05
    5.5775423534e-03    1.0066728906e+05
    5.5978130549e-03    1.0066803125e+05
    5.6181000546e-03    1.0067035156e+05
    5.6384028867e-03    1.0067275781e+05
    5.6587206200e-03    1.0067471094e+05
    5.6790532544e-03    1.0068625000e+05
    5.6994007900e-03    1.0067997656e+05
    5.7197632268e-03    1.0068293750e+05
    5.7401410304e-03    1.0068711719e+05
    5.7605337352e-03    1.0068971094e+05
    5.7809422724e-03    1.0068553125e+05
    5.8013652451e-03    1.0069558594e+05
    5.8218040504e-03    1.0069771875e+05
    5.8422577567e-03    1.0070130469e+05
    5.8627268299e-03    1.0071541406e+05
    5.8832112700e-03    1.0071908594e+05
    5.9037101455e-03    1.0072263281e+05
    5.9242248535e-03    1.0071750781e+05
    5.9447535314e-03    1.0072483594e+05
    5.9641525149e-03    1.0073591406e+05
    5.9830932878e-03    1.0074049219e+05
    6.0020405799e-03    1.0075221094e+05
    6.0210367665e-03    1.0076025781e+05
    6.0400799848e-03    1.0076550000e+05
    6.0591096990e-03    1.0077056250e+05
    6.0781282373e-03    1.0077025781e+05
    6.0972142965e-03    1.0077363281e+05
    6.1162756756e-03    1.0078264844e+05
    6.1353649944e-03    1.0078735156e+05
    6.1544459313e-03    1.0079228906e+05
    6.1734300107e-03    1.0080733594e+05
    6.1924448237e-03    1.0081362500e+05
    6.2115197070e-03    1.0082194531e+05
    6.2306127511e-03    1.0083516406e+05
    6.2497169711e-03    1.0084197656e+05
    6.2688281760e-03    1.0085766406e+05
    6.2879407778e-03    1.0087159375e+05
    6.3070552424e-03    1.0088303906e+05
    6.3261794858e-03    1.0089097656e+05
    6.3453060575e-03    1.0090894531e+05
    6.3644465990e-03    1.0091849219e+05
    6.3835908659e-03    1.0093753125e+05
    6.4027444459e-03    1.0096403906e+05
    6.4219115302e-03    1.0099117969e+05
    6.4410855994e-03    1.0100452344e+05
    6.4602680504e-03    1.0102803906e+05
    6.4794607460e-03    1.0105221094e+05
    6.4986641519e-03    1.0108321094e+05
    6.5178787336e-03    1.0113000781e+05
    6.5371058881e-03    1.0123350781e+05
    6.5563363023e-03    1.0143433594e+05
    6.5755699761e-03    1.0185800000e+05
    6.5948092379e-03    1.0270419531e+05
    6.6140629351e-03    1.0435483594e+05
    6.6333152354e-03    1.0737455469e+05
    6.6525745206e-03    1.1241871094e+05
    6.6718445159e-03    1.1992663281e+05
    6.6911154427e-03    1.2978460156e+05
    6.7104012705e-03    1.4096825000e+05
    6.7296870984e-03    1.5179084375e+05
    6.7489854991e-03    1.6052739062e+05
    6.7682852969e-03    1.6618115625e+05
    6.7875892855e-03    1.6875153125e+05
    6.8069072440e-03    1.6895421875e+05
    6.8262196146e-03    1.6776512500e+05
    6.8455408327e-03    1.6603310938e+05
    6.8648783490e-03    1.6438276562e+05
    6.8842126057e-03    1.6302265625e+05
    6.9035501219e-03    1.6185412500e+05
    6.9228983484e-03    1.6072639062e+05
    6.9422605447e-03    1.5947126562e+05
    6.9616222754e-03    1.5799623438e+05
    6.9809844717e-03    1.5631303125e+05
    7.0003494620e-03    1.5447946875e+05
    7.0197195746e-03    1.5259689062e+05
    7.0390999317e-03    1.5073982812e+05
    7.0584909990e-03    1.4897592188e+05
    7.0778946392e-03    1.4732495312e+05
    7.0973108523e-03    1.4577028125e+05
    7.1167377755e-03    1.4428853125e+05
    7.1361698210e-03    1.4284842188e+05
    7.1556069888e-03    1.4143945312e+05
    7.1750483476e-03    1.4006260938e+05
    7.1944966912e-03    1.3872793750e+05
    7.2139529511e-03    1.3745590625e+05
    7.2334166616e-03    1.3625060938e+05
    7.2528840974e-03    1.3513179688e+05
    7.2723543271e-03    1.3408585938e+05
    7.2918278165e-03    1.3311912500e+05
    7.3113050312e-03    1.3221720312e+05
    7.3307845742e-03    1.3136614062e+05
    7.3502692394e-03    1.3056417969e+05
    7.3697618209e-03    1.2979671094e+05
    7.3892641813e-03    1.2907741406e+05
    7.4087800458e-03    1.2838502344e+05
    7.4282912537e-03    1.2773250781e+05
    7.4477996677e-03    1.2711521094e+05
    7.4673094787e-03    1.2652703906e+05
    7.4868267402e-03    1.2596521094e+05
    7.5063589029e-03    1.2543072656e+05
    7.5258887373e-03    1.2491710156e+05
    7.5454111211e-03    1.2441921094e+05
    7.5649353676e-03    1.2393935156e+05
    7.5844703242e-03    1.2347781250e+05
    7.6040057465e-03    1.2304108594e+05
    7.6235276647e-03    1.2263025000e+05
    7.6430505142e-03    1.2224658594e+05
    7.6625877991e-03    1.2189131250e+05
    7.6821087860e-03    1.2156659375e+05
    7.7016241848e-03    1.2126847656e+05
    7.7211544849e-03    1.2098558594e+05
    7.7406810597e-03    1.2073127344e+05
    7.7602043748e-03    1.2049078906e+05
    7.7797495760e-03    1.2025946875e+05
    7.7992938459e-03    1.2003278906e+05
    7.8188432381e-03    1.1981046094e+05
    7.8384252265e-03    1.1958880469e+05
    7.8580006957e-03    1.1936658594e+05
    7.8775910661e-03    1.1913588281e+05
    7.8972103074e-03    1.1890603125e+05
    7.9168286175e-03    1.1867277344e+05
    7.9364804551e-03    1.1843960156e+05
    7.9561360180e-03    1.1819978906e+05
    7.9758102074e-03    1.1795509375e+05
    7.9955114052e-03    1.1771746094e+05
    8.0152126029e-03    1.1747737500e+05
    8.0349491909e-03    1.1724091406e+05
    8.0546662211e-03    1.1701352344e+05
    8.0743944272e-03    1.1679425781e+05
    8.0941170454e-03    1.1658409375e+05
    8.1138620153e-03    1.1638541406e+05
    8.1336386502e-03    1.1619613281e+05
    8.1534720957e-03    1.1601431250e+05
    8.1733558327e-03    1.1584074219e+05
    8.1932730973e-03    1.1567946094e+05
    8.2132071257e-03    1.1552871875e+05
    8.2330890000e-03    1.1539158594e+05
    8.2529615611e-03    1.1526515625e+05
    8.2727763802e-03    1.1515002344e+05
    8.2926023751e-03    1.1504753906e+05
    8.3124246448e-03    1.1495017969e+05
    8.3322748542e-03    1.1486057031e+05
    8.3521194756e-03    1.1478321875e+05
    8.3719678223e-03    1.1470578125e+05
    8.3917891607e-03    1.1463378125e+05
    8.4116021171e-03    1.1455411719e+05
    8.4314141423e-03    1.1446962500e+05
    8.4512168542e-03    1.1437219531e+05
    8.4710381925e-03    1.1426714844e+05
    8.4908353165e-03    1.1414914844e+05
    8.5106678307e-03    1.1402178906e+05
    8.5304882377e-03    1.1389322656e+05
    8.5503393784e-03    1.1374960156e+05
    8.5699046031e-03    1.1359668750e+05
    8.5892248899e-03    1.1344133594e+05
    8.6083402857e-03    1.1328522656e+05
    8.6272666231e-03    1.1313746875e+05
    8.6460309103e-03    1.1298753906e+05
    8.6646731943e-03    1.1285263281e+05
    8.6832325906e-03    1.1272941406e+05
    8.7017398328e-03    1.1261637500e+05
    8.7202098221e-03    1.1251418750e+05
    8.7386453524e-03    1.1242503125e+05
    8.7570473552e-03    1.1234822656e+05
    8.7753897533e-03    1.1228897656e+05
    8.7936492637e-03    1.1224021094e+05
    8.8118780404e-03    1.1220275000e+05
    8.8300397620e-03    1.1216758594e+05
    8.8481390849e-03    1.1213850781e+05
    8.8662039489e-03    1.1210792969e+05
    8.8842641562e-03    1.1208565625e+05
    8.9023411274e-03    1.1204378906e+05
    8.9204348624e-03    1.1201077344e+05
    8.9385388419e-03    1.1196610156e+05
    8.9566456154e-03    1.1191785156e+05
    8.9747514576e-03    1.1186131250e+05
    8.9928600937e-03    1.1179181250e+05
    9.0109808370e-03    1.1171881250e+05
    9.0291155502e-03    1.1164106250e+05
    9.0472688898e-03    1.1156189844e+05
    9.0654399246e-03    1.1147338281e+05
    9.0836230665e-03    1.1139034375e+05
    9.1018192470e-03    1.1130033594e+05
    9.1200266033e-03    1.1121562500e+05
    9.1382460669e-03    1.1112797656e+05
    9.1564757749e-03    1.1105016406e+05
    9.1747231781e-03    1.1096950781e+05
    9.1929892078e-03    1.1089880469e+05
    9.2112747952e-03    1.1083371094e+05
    9.2295790091e-03    1.1077593750e+05
    9.2479009181e-03    1.1071790625e+05
    9.2662386596e-03    1.1066610156e+05
    9.2845931649e-03    1.1061244531e+05
    9.3029672280e-03    1.1055578906e+05
    9.3213599175e-03    1.1049853906e+05
    9.3397712335e-03    1.1043699219e+05
    9.3582011759e-03    1.1037233594e+05
    9.3766497448e-03    1.1030810156e+05
    9.3951150775e-03    1.1024361719e+05
    9.4135999680e-03    1.1017561719e+05
    9.4321016222e-03    1.1010624219e+05
    9.4506228343e-03    1.1004024219e+05
    9.4691645354e-03    1.0996611719e+05
    9.4877239317e-03    1.0989489844e+05
    9.5063010231e-03    1.0983027344e+05
    9.5248948783e-03    1.0976969531e+05
    9.5435054973e-03    1.0971297656e+05
    9.5621328801e-03    1.0966377344e+05
    9.5807760954e-03    1.0962230469e+05
    9.5994332805e-03    1.0958308594e+05
    9.6181081608e-03    1.0954696875e+05
    9.6367979422e-03    1.0951403125e+05
    9.6555035561e-03    1.0948010156e+05
    9.6742231399e-03    1.0944665625e+05
    9.6929576248e-03    1.0941271875e+05
    9.7117051482e-03    1.0937760156e+05
    9.7304685041e-03    1.0934268750e+05
    9.7492448986e-03    1.0930071094e+05
    9.7680361941e-03    1.0925550000e+05
    9.7868405282e-03    1.0919960156e+05
    9.8056588322e-03    1.0913978906e+05
    9.8244920373e-03    1.0907760156e+05
    9.8433364183e-03    1.0901121094e+05
    9.8621929064e-03    1.0894853125e+05
    9.8810633644e-03    1.0888853906e+05
    9.8999459296e-03    1.0882539844e+05
    9.9188406020e-03    1.0876041406e+05
    9.9377483130e-03    1.0869953906e+05
    9.9566690624e-03    1.0864424219e+05
    9.9756028503e-03    1.0859044531e+05
    9.9945487455e-03    1.0854022656e+05
    1.0013507679e-02    1.0849897656e+05
    1.0032479651e-02    1.0846038281e+05
    1.0051463731e-02    1.0843352344e+05
    1.0070459917e-02    1.0840840625e+05
    1.0089469142e-02    1.0838350000e+05
    1.0108492337e-02    1.0835925000e+05
    1.0127528571e-02    1.0833435156e+05
    1.0146577843e-02    1.0830343750e+05
    1.0165639222e-02    1.0827341406e+05
    1.0184712708e-02    1.0824260156e+05
    1.0203798302e-02    1.0820317969e+05
    1.0222896002e-02    1.0816750000e+05
    1.0242006741e-02    1.0812239844e+05
    1.0261129588e-02    1.0807613281e+05
    1.0280264542e-02    1.0802132031e+05
    1.0299413465e-02    1.0796085156e+05
    1.0318575427e-02    1.0788939844e+05
    1.0337748565e-02    1.0780958594e+05
    1.0356934741e-02    1.0771709375e+05
    1.0376133956e-02    1.0761317969e+05
    1.0395346209e-02    1.0749934375e+05
    1.0414571501e-02    1.0737527344e+05
    1.0433809832e-02    1.0723328125e+05
    1.0453061201e-02    1.0709019531e+05
    1.0472324677e-02    1.0693549219e+05
    1.0491601191e-02    1.0678478906e+05
    1.0510892607e-02    1.0662585156e+05
    1.0530196130e-02    1.0647346094e+05
    1.0549513623e-02    1.0632194531e+05
    1.0568842292e-02    1.0617353906e+05
    1.0588183999e-02    1.0602758594e+05
    1.0607538745e-02    1.0589808594e+05
    1.0626907460e-02    1.0576559375e+05
    1.0646289214e-02    1.0564246875e+05
    1.0665684007e-02    1.0553334375e+05
    1.0685092770e-02    1.0542212500e+05
    1.0704516433e-02    1.0532784375e+05
    1.0723951273e-02    1.0523788281e+05
    1.0743400082e-02    1.0515414844e+05
    1.0762862861e-02    1.0508197656e+05
    1.0782338679e-02    1.0500721094e+05
    1.0801829398e-02    1.0493810156e+05
    1.0821334086e-02    1.0487708594e+05
    1.0840852745e-02    1.0482206250e+05
    1.0860386305e-02    1.0477127344e+05
    1.0879932903e-02    1.0472492969e+05
    1.0899493471e-02    1.0467755469e+05
    1.0919069871e-02    1.0462237500e+05
    1.0938662104e-02    1.0457444531e+05
    1.0958270170e-02    1.0452333594e+05
    1.0977892205e-02    1.0447255469e+05
    1.0997531936e-02    1.0442605469e+05
    1.1017187499e-02    1.0438960156e+05
    1.1036860757e-02    1.0436506250e+05
    1.1056551710e-02    1.0435172656e+05
    1.1076259427e-02    1.0433928906e+05
    1.1095987633e-02    1.0433514844e+05
    1.1115733534e-02    1.0433558594e+05
    1.1135498993e-02    1.0434299219e+05
    1.1155283079e-02    1.0435940625e+05
    1.1175086722e-02    1.0437305469e+05
    1.1194912717e-02    1.0437930469e+05
    1.1214758269e-02    1.0438771094e+05
    1.1234625243e-02    1.0437771094e+05
    1.1254511774e-02    1.0435496875e+05
    1.1274418794e-02    1.0433277344e+05
    1.1294347234e-02    1.0429953906e+05
    1.1314296164e-02    1.0426896094e+05
    1.1334266514e-02    1.0423058594e+05
    1.1354257353e-02    1.0418166406e+05
    1.1374268681e-02    1.0414064844e+05
    1.1394302361e-02    1.0408812500e+05
    1.1414355598e-02    1.0403380469e+05
    1.1434430256e-02    1.0397960156e+05
    1.1454525404e-02    1.0392925000e+05
    1.1474640109e-02    1.0388081250e+05
    1.1494777165e-02    1.0383082031e+05
    1.1514934711e-02    1.0378052344e+05
    1.1535113677e-02    1.0372552344e+05
    1.1555313133e-02    1.0367190625e+05
    1.1575534008e-02    1.0362169531e+05
    1.1595774442e-02    1.0356872656e+05
    1.1616035365e-02    1.0352134375e+05
    1.1636316776e-02    1.0346746094e+05
    1.1656619608e-02    1.0342039844e+05
    1.1676942930e-02    1.0337586719e+05
    1.1697287671e-02    1.0333875000e+05
    1.1717652902e-02    1.0330432031e+05
    1.1738038622e-02    1.0328077344e+05
    1.1758443899e-02    1.0325003906e+05
    1.1778870597e-02    1.0321939844e+05
    1.1799318716e-02    1.0318857031e+05
    1.1819788255e-02    1.0314874219e+05
    1.1840280145e-02    1.0311202344e+05
    1.1860790662e-02    1.0306927344e+05
    1.1881321669e-02    1.0302646094e+05
    1.1901874095e-02    1.0297810156e+05
    1.1922447011e-02    1.0293069531e+05
    1.1943042278e-02    1.0287960156e+05
    1.1963658035e-02    1.0282536719e+05
    1.1984295212e-02    1.0277622656e+05
    1.2004952878e-02    1.0273994531e+05
    1.2025631964e-02    1.0269772656e+05
    1.2046331540e-02    1.0265859375e+05
    1.2067052536e-02    1.0263014844e+05
    1.2087795883e-02    1.0260047656e+05
    1.2108558789e-02    1.0257213281e+05
    1.2129344046e-02    1.0255497656e+05
    1.2150149792e-02    1.0254025000e+05
    1.2170976959e-02    1.0253985156e+05
    1.2191825546e-02    1.0255755469e+05
    1.2212695554e-02    1.0259953906e+05
    1.2233586982e-02    1.0267905469e+05
    1.2254500762e-02    1.0280888281e+05
    1.2275436893e-02    1.0300078906e+05
    1.2296394445e-02    1.0327710156e+05
    1.2317374349e-02    1.0366086719e+05
    1.2338375673e-02    1.0416921094e+05
    1.2359398417e-02    1.0482063281e+05
    1.2380442582e-02    1.0562197656e+05
    1.2401508167e-02    1.0657256250e+05
    1.2422595173e-02    1.0763914844e+05
    1.2443703599e-02    1.0877682031e+05
    1.2464834377e-02    1.0992202344e+05
    1.2485986575e-02    1.1098130469e+05
    1.2507158332e-02    1.1187435156e+05
    1.2528351508e-02    1.1253364844e+05
    1.2549565174e-02    1.1292014844e+05
    1.2570801191e-02    1.1302569531e+05
    1.2592058629e-02    1.1287002344e+05
    1.2613337487e-02    1.1248232031e+05
    1.2634636834e-02    1.1192471875e+05
    1.2655957602e-02    1.1124616406e+05
    1.2677297927e-02    1.1050158594e+05
    1.2698660605e-02    1.0975546875e+05
    1.2720043771e-02    1.0905092969e+05
    1.2741449289e-02    1.0843483594e+05
    1.2762876227e-02    1.0792496875e+05
    1.2784325518e-02    1.0752291406e+05
    1.2805794366e-02    1.0719453906e+05
    1.2827285565e-02    1.0691909375e+05
    1.2848797254e-02    1.0663352344e+05
    1.2870330364e-02    1.0631725781e+05
    1.2891885825e-02    1.0594689844e+05
    1.2913462706e-02    1.0551996875e+05
    1.2935061008e-02    1.0504111719e+05
    1.2956679799e-02    1.0452166406e+05
    1.2978320010e-02    1.0398444531e+05
    1.2999981642e-02    1.0345003906e+05
    1.3021663763e-02    1.0294616406e+05
    1.3043368235e-02    1.0249192969e+05
    1.3065092266e-02    1.0210607031e+05
    1.3086837716e-02    1.0178775000e+05
    1.3108605519e-02    1.0153703906e+05
    1.3130392879e-02    1.0133932031e+05
    1.3152201660e-02    1.0117940625e+05
    1.3174032792e-02    1.0105507031e+05
    1.3195885345e-02    1.0095391406e+05
    1.3217759319e-02    1.0087164844e+05
    1.3239653781e-02    1.0079785156e+05
    1.3261569664e-02    1.0074102344e+05
    1.3283506967e-02    1.0068883594e+05
    1.3305463828e-02    1.0064299219e+05
    1.3327440247e-02    1.0060453906e+05
    1.3349435292e-02    1.0057753906e+05
    1.3371448033e-02    1.0056272656e+05
    1.3393475674e-02    1.0055631250e+05
    1.3415516354e-02    1.0056005469e+05
    1.3437564485e-02    1.0055935156e+05
    1.3459613547e-02    1.0055908594e+05
    1.3481658883e-02    1.0054106250e+05
    1.3503690250e-02    1.0050764844e+05
    1.3525702059e-02    1.0046321094e+05
    1.3547683135e-02    1.0040678125e+05
    1.3569628820e-02    1.0034397656e+05
    1.3591531664e-02    1.0027118750e+05
    1.3613392599e-02    1.0020416406e+05
    1.3635210693e-02    1.0015524219e+05
    1.3656994328e-02    1.0012597656e+05
    1.3678749092e-02    1.0012180469e+05
    1.3700488023e-02    1.0014361719e+05
    1.3722228818e-02    1.0019146875e+05
    1.3743981719e-02    1.0024119531e+05
    1.3765762560e-02    1.0029050000e+05
    1.3787578791e-02    1.0033138281e+05
    1.3809437864e-02    1.0035803125e+05
    1.3831341639e-02    1.0036527344e+05
    1.3853288256e-02    1.0035535156e+05
    1.3875273056e-02    1.0032433594e+05
    1.3897285797e-02    1.0028406250e+05
    1.3919321820e-02    1.0024190625e+05
    1.3941374607e-02    1.0021907031e+05
    1.3963440433e-02    1.0020927344e+05
    1.3985517435e-02    1.0022582031e+05
    1.4007603750e-02    1.0025803125e+05
    1.4029704034e-02    1.0031335156e+05
    1.4051820152e-02    1.0038114844e+05
    1.4073957689e-02    1.0044862500e+05
    1.4096121304e-02    1.0051972656e+05
    1.4118315652e-02    1.0059035156e+05
    1.4140545391e-02    1.0066311719e+05
    1.4162814245e-02    1.0073103125e+05
    1.4185124077e-02    1.0079610156e+05
    1.4207473956e-02    1.0085571094e+05
    1.4229862019e-02    1.0090756250e+05
    1.4252286404e-02    1.0095350000e+05
    1.4274741523e-02    1.0099572656e+05
    1.4297228307e-02    1.0104102344e+05
    1.4319745824e-02    1.0108063281e+05
    1.4342290349e-02    1.0110672656e+05
    1.4364863746e-02    1.0111963281e+05
    1.4387467876e-02    1.0112646094e+05
    1.4410103671e-02    1.0111460156e+05
    1.4432771131e-02    1.0110085156e+05
    1.4455472119e-02    1.0106690625e+05
    1.4478209428e-02    1.0102324219e+05
    1.4500979334e-02    1.0096878125e+05
    1.4523783699e-02    1.0090435156e+05
    1.4546621591e-02    1.0084287500e+05
    1.4569494873e-02    1.0077700000e+05
    1.4592399821e-02    1.0071752344e+05
    1.4615339227e-02    1.0066162500e+05
    1.4638305642e-02    1.0061740625e+05
    1.4661304653e-02    1.0056915625e+05
    1.4684336260e-02    1.0054100781e+05
    1.4707398601e-02    1.0051441406e+05
    1.4730494469e-02    1.0049589844e+05
    1.4753622934e-02    1.0049110156e+05
    1.4776783995e-02    1.0049278906e+05
    1.4799979515e-02    1.0049602344e+05
    1.4823205769e-02    1.0050891406e+05
    1.4846466482e-02    1.0053606250e+05
    1.4869757928e-02    1.0056264844e+05
    1.4893081971e-02    1.0059318750e+05
    1.4916437678e-02    1.0062819531e+05
    1.4939822257e-02    1.0066877344e+05
    1.4963239431e-02    1.0070465625e+05
    1.4986685477e-02    1.0074413281e+05
    1.5010161325e-02    1.0077628125e+05
    1.5033668838e-02    1.0080964844e+05
    1.5057205223e-02    1.0083385156e+05
    1.5080772340e-02    1.0085275000e+05
    1.5104367398e-02    1.0086382031e+05
    1.5127992257e-02    1.0086711719e+05
    1.5151646920e-02    1.0086221094e+05
    1.5175330453e-02    1.0086093750e+05
    1.5199041925e-02    1.0084324219e+05
    1.5222782269e-02    1.0082805469e+05
    1.5246548690e-02    1.0080211719e+05
    1.5270343982e-02    1.0076603906e+05
    1.5294168144e-02    1.0072257031e+05
    1.5318016522e-02    1.0067771094e+05
    1.5341891907e-02    1.0062166406e+05
    1.5365792438e-02    1.0056244531e+05
    1.5389721841e-02    1.0050296094e+05
    1.5413676389e-02    1.0043389844e+05
    1.5437657945e-02    1.0036128906e+05
    1.5461664647e-02    1.0028103125e+05
    1.5485695563e-02    1.0021390625e+05
    1.5509752557e-02    1.0013625781e+05
    1.5533835627e-02    1.0006258594e+05
    1.5557944775e-02    9.9998039062e+04
    1.5582079068e-02    9.9934132812e+04
    1.5606240369e-02    9.9877148438e+04
    1.5630424023e-02    9.9824625000e+04
    1.5654634684e-02    9.9789375000e+04
    1.5678871423e-02    9.9759093750e+04
    1.5703132376e-02    9.9733929688e+04
    1.5727419406e-02    9.9711148438e+04
    1.5751728788e-02    9.9694632812e+04
    1.5776060522e-02    9.9684406250e+04
    1.5800418332e-02    9.9672851562e+04
    1.5824800357e-02    9.9671632812e+04
    1.5849204734e-02    9.9667835938e+04
    1.5873633325e-02    9.9669617188e+04
    1.5898084268e-02    9.9667492188e+04
    1.5922557563e-02    9.9673031250e+04
    1.5947058797e-02    9.9679554688e+04
    1.5971582383e-02    9.9688757812e+04
    1.5996130183e-02    9.9698070312e+04
    1.6020702198e-02    9.9709226562e+04
    1.6045298427e-02    9.9731031250e+04
    1.6069920734e-02    9.9755289062e+04
    1.6094569117e-02    9.9786398438e+04
    1.6119243577e-02    9.9815289062e+04
    1.6143942252e-02    9.9848554688e+04
    1.6168667004e-02    9.9884257812e+04
    1.6193419695e-02    9.9924656250e+04
    1.6218200326e-02    9.9964304688e+04
    1.6243007034e-02    1.0000843750e+05
    1.6267839819e-02    1.0006349219e+05
    1.6292702407e-02    1.0011013281e+05
    1.6317596659e-02    1.0016900781e+05
    1.6342513263e-02    1.0023196094e+05
    1.6367461532e-02    1.0029286719e+05
    1.6392435879e-02    1.0035497656e+05
    1.6417443752e-02    1.0042341406e+05
    1.6442479566e-02    1.0048831250e+05
    1.6467543319e-02    1.0055169531e+05
    1.6492636874e-02    1.0060577344e+05
    1.6517756507e-02    1.0066125000e+05
    1.6542907804e-02    1.0071433594e+05
    1.6568088904e-02    1.0074983594e+05
    1.6593271866e-02    1.0078683594e+05
    1.6618426889e-02    1.0081252344e+05
    1.6643559560e-02    1.0083257031e+05
    1.6668669879e-02    1.0085386719e+05
    1.6693757847e-02    1.0087697656e+05
    1.6718825325e-02    1.0088725781e+05
    1.6743874177e-02    1.0090585156e+05
    1.6768900678e-02    1.0091910156e+05
    1.6793908551e-02    1.0093133594e+05
    1.6818899661e-02    1.0094790625e+05
    1.6843874007e-02    1.0096731250e+05
    1.6868829727e-02    1.0098722656e+05
    1.6893770546e-02    1.0100837500e+05
    1.6918692738e-02    1.0102342969e+05
    1.6943598166e-02    1.0104475000e+05
    1.6968490556e-02    1.0107050781e+05
    1.6993366182e-02    1.0110137500e+05
    1.7018226907e-02    1.0113072656e+05
    1.7043072730e-02    1.0116008594e+05
    1.7067901790e-02    1.0120099219e+05
    1.7092714086e-02    1.0124909375e+05
    1.7117511481e-02    1.0130522656e+05
    1.7142292112e-02    1.0136377344e+05
    1.7167057842e-02    1.0142684375e+05
    1.7191808671e-02    1.0149291406e+05
    1.7216544598e-02    1.0156272656e+05
    1.7241263762e-02    1.0163635156e+05
    1.7265968025e-02    1.0170635156e+05
    1.7290659249e-02    1.0177218750e+05
    1.7315333709e-02    1.0183315625e+05
    1.7339993268e-02    1.0188896094e+05
    1.7364639789e-02    1.0193683594e+05
    1.7389267683e-02    1.0197384375e+05
    1.7413880676e-02    1.0200965625e+05
    1.7438478768e-02    1.0203997656e+05
    1.7463061959e-02    1.0206237500e+05
    1.7487626523e-02    1.0207658594e+05
    1.7512176186e-02    1.0208772656e+05
    1.7536709085e-02    1.0209555469e+05
    1.7561223358e-02    1.0210125781e+05
    1.7585720867e-02    1.0210550000e+05
    1.7610201612e-02    1.0210121094e+05
    1.7634663731e-02    1.0210693750e+05
    1.7659107223e-02    1.0210702344e+05
    1.7683532089e-02    1.0211378125e+05
    1.7707940191e-02    1.0212114844e+05
    1.7732329667e-02    1.0212672656e+05
    1.7756698653e-02    1.0213468750e+05
    1.7781050876e-02    1.0214850000e+05
    1.7805384472e-02    1.0216897656e+05
    1.7829699442e-02    1.0218778125e+05
    1.7853999510e-02    1.0221341406e+05
    1.7878280953e-02    1.0223562500e+05
    1.7902545631e-02    1.0226710156e+05
    1.7926793545e-02    1.0229852344e+05
    1.7951028422e-02    1.0233556250e+05
    1.7975246534e-02    1.0236802344e+05
    1.7999447882e-02    1.0239478125e+05
    1.8023636192e-02    1.0243743750e+05
    1.8047811463e-02    1.0246975781e+05
    1.8071975559e-02    1.0250702344e+05
    1.8096126616e-02    1.0255003906e+05
    1.8120266497e-02    1.0260138281e+05
    1.8144397065e-02    1.0266425000e+05
    1.8168520182e-02    1.0272708594e+05
    1.8192630261e-02    1.0280172656e+05
    1.8216732889e-02    1.0289205469e+05
    1.8240824342e-02    1.0298858594e+05
    1.8264908344e-02    1.0309977344e+05
    1.8288983032e-02    1.0320585156e+05
    1.8313048407e-02    1.0331737500e+05
    1.8337102607e-02    1.0341550781e+05
    1.8361147493e-02    1.0350283594e+05
    1.8385183066e-02    1.0357333594e+05
    1.8409207463e-02    1.0361963281e+05
    1.8433224410e-02    1.0362784375e+05
    1.8457230181e-02    1.0360771875e+05
    1.8481226638e-02    1.0355519531e+05
    1.8505210057e-02    1.0346807031e+05
    1.8529184163e-02    1.0333878906e+05
    1.8553148955e-02    1.0316658594e+05
    1.8577100709e-02    1.0295763281e+05
    1.8601041287e-02    1.0271482031e+05
    1.8624972552e-02    1.0246041406e+05
    1.8648892641e-02    1.0218790625e+05
    1.8672801554e-02    1.0191525000e+05
    1.8696699291e-02    1.0165194531e+05
    1.8720587716e-02    1.0140703906e+05
    1.8744463101e-02    1.0119239844e+05
    1.8768329173e-02    1.0101296875e+05
    1.8792184070e-02    1.0086480469e+05
    1.8816027790e-02    1.0075286719e+05
    1.8839860335e-02    1.0067736719e+05
    1.8863683566e-02    1.0062580469e+05
    1.8887493759e-02    1.0060363281e+05
    1.8911294639e-02    1.0060050781e+05
    1.8935086206e-02    1.0061507031e+05
    1.8958866596e-02    1.0063088281e+05
    1.8982635811e-02    1.0066316406e+05
    1.9006397575e-02    1.0069740625e+05
    1.9030146301e-02    1.0074136719e+05
    1.9053885713e-02    1.0079074219e+05
    1.9077615812e-02    1.0084444531e+05
    1.9101334736e-02    1.0090247656e+05
    1.9125042483e-02    1.0095735156e+05
    1.9148740917e-02    1.0100938281e+05
    1.9172428176e-02    1.0106180469e+05
    1.9196104258e-02    1.0110914844e+05
    1.9219771028e-02    1.0115213281e+05
    1.9243424758e-02    1.0119771094e+05
    1.9267069176e-02    1.0123800000e+05
    1.9290700555e-02    1.0127228125e+05
    1.9314322621e-02    1.0130166406e+05
    1.9337931648e-02    1.0133231250e+05
    1.9361529499e-02    1.0136606250e+05
    1.9385114312e-02    1.0140342969e+05
    1.9408687949e-02    1.0144528906e+05
    1.9432250410e-02    1.0149491406e+05
    1.9455801696e-02    1.0154830469e+05
    1.9479339942e-02    1.0161022656e+05
    1.9502865151e-02    1.0167774219e+05
    1.9526379183e-02    1.0174071094e+05
    1.9549878314e-02    1.0180402344e+05
    1.9573366269e-02    1.0186391406e+05
    1.9596841186e-02    1.0192830469e+05
    1.9620303065e-02    1.0198893750e+05
    1.9643751904e-02    1.0204477344e+05
    1.9667187706e-02    1.0209572656e+05
    1.9690606743e-02    1.0214397656e+05
    1.9714014605e-02    1.0219146094e+05
    1.9737409428e-02    1.0223896094e+05
    1.9760791212e-02    1.0228312500e+05
    1.9784159958e-02    1.0232260156e+05
    1.9807513803e-02    1.0235591406e+05
    1.9830854610e-02    1.0238997656e+05
    1.9854182377e-02    1.0241425781e+05
    1.9877497107e-02    1.0243871094e+05
    1.9900798798e-02    1.0245971094e+05
    1.9924087450e-02    1.0247063281e+05
    1.9947361201e-02    1.0248250781e+05
    1.9970623776e-02    1.0248093750e+05
    1.9993871450e-02    1.0248080469e+05
    2.0017107949e-02    1.0247785156e+05
    2.0040329546e-02    1.0247192969e+05
    2.0063538104e-02    1.0246133594e+05
    2.0086731762e-02    1.0244757031e+05
    2.0109914243e-02    1.0243558594e+05
    2.0133081824e-02    1.0242196094e+05
    2.0156236365e-02    1.0240302344e+05
    2.0179376006e-02    1.0238721094e+05
    2.0202504471e-02    1.0237203125e+05
    2.0225618035e-02    1.0236005469e+05
    2.0248720422e-02    1.0234167969e+05
    2.0271807909e-02    1.0231778906e+05
    2.0294882357e-02    1.0229864844e+05
    2.0317947492e-02    1.0228037500e+05
    2.0340997726e-02    1.0226442969e+05
    2.0364036784e-02    1.0225321875e+05
    2.0387060940e-02    1.0223877344e+05
    2.0410073921e-02    1.0222496875e+05
    2.0433073863e-02    1.0221140625e+05
    2.0456060767e-02    1.0219836719e+05
    2.0479036495e-02    1.0218664844e+05
    2.0501999184e-02    1.0217365625e+05
    2.0524948835e-02    1.0216717969e+05
    2.0547885448e-02    1.0215741406e+05
    2.0570809022e-02    1.0214084375e+05
    2.0593719557e-02    1.0213103906e+05
    2.0616617054e-02    1.0212102344e+05
    2.0639499649e-02    1.0211008594e+05
    2.0662369207e-02    1.0209932031e+05
    2.0685223863e-02    1.0207850000e+05
    2.0708063617e-02    1.0206750781e+05
    2.0730890334e-02    1.0206607031e+05
    2.0753700286e-02    1.0205453125e+05
    2.0776495337e-02    1.0203807031e+05
    2.0799275488e-02    1.0202091406e+05
    2.0822042599e-02    1.0200906250e+05
    2.0844791085e-02    1.0199555469e+05
    2.0867524669e-02    1.0197317969e+05
    2.0890241489e-02    1.0196453125e+05
    2.0912945271e-02    1.0194702344e+05
    2.0935632288e-02    1.0193466406e+05
    2.0958306268e-02    1.0192121875e+05
    2.0980965346e-02    1.0189893750e+05
    2.1003607661e-02    1.0188356250e+05
    2.1026238799e-02    1.0186864844e+05
    2.1048855036e-02    1.0185402344e+05
    2.1071458235e-02    1.0184956250e+05
    2.1094048396e-02    1.0183690625e+05
    2.1116625518e-02    1.0181447656e+05
    2.1139191464e-02    1.0180205469e+05
    2.1161744371e-02    1.0178853906e+05
    2.1184286103e-02    1.0177992969e+05
    2.1206818521e-02    1.0177346875e+05
    2.1229337901e-02    1.0177183594e+05
    2.1251846105e-02    1.0176164844e+05
    2.1274344996e-02    1.0175293750e+05
    2.1296832711e-02    1.0174783594e+05
    2.1319312975e-02    1.0173222656e+05
    2.1341778338e-02    1.0173102344e+05
    2.1364232525e-02    1.0172163281e+05
    2.1386675537e-02    1.0172207031e+05
    2.1409107372e-02    1.0171414844e+05
    2.1431528032e-02    1.0171622656e+05
    2.1453931928e-02    1.0171265625e+05
    2.1476324648e-02    1.0170885156e+05
    2.1498700604e-02    1.0170306250e+05
    2.1521063522e-02    1.0170185156e+05
    2.1543409675e-02    1.0170612500e+05
    2.1565740928e-02    1.0170955469e+05
    2.1588053554e-02    1.0170946094e+05
    2.1610351279e-02    1.0171085156e+05
    2.1632634103e-02    1.0170313281e+05
    2.1654898301e-02    1.0171007031e+05
    2.1677147597e-02    1.0170834375e+05
    2.1699378267e-02    1.0170650000e+05
    2.1721594036e-02    1.0170643750e+05
    2.1743793041e-02    1.0171571875e+05
    2.1765975282e-02    1.0171653125e+05
    2.1788140759e-02    1.0172733594e+05
    2.1810289472e-02    1.0172563281e+05
    2.1832419559e-02    1.0171939844e+05
    2.1854531020e-02    1.0171938281e+05
    2.1876627579e-02    1.0172989844e+05
    2.1898705512e-02    1.0172560156e+05
    2.1920768544e-02    1.0172162500e+05
    2.1942811087e-02    1.0172239844e+05
    2.1964838728e-02    1.0172728906e+05
    2.1986849606e-02    1.0172809375e+05
    2.2008845583e-02    1.0172633594e+05
    2.2030822933e-02    1.0172375781e+05
    2.2052785382e-02    1.0172118750e+05
    2.2074732929e-02    1.0170978125e+05
    2.2096665576e-02    1.0170811719e+05
    2.2118583322e-02    1.0170230469e+05
    2.2140489891e-02    1.0170496875e+05
    2.2162377834e-02    1.0170210156e+05
    2.2184254602e-02    1.0169943750e+05
    2.2206118330e-02    1.0169608594e+05
    2.2227969021e-02    1.0169364844e+05
    2.2249806672e-02    1.0168921094e+05
    2.2271629423e-02    1.0168171875e+05
    2.2293440998e-02    1.0168533594e+05
    2.2315241396e-02    1.0168322656e+05
    2.2337028757e-02    1.0167991406e+05
    2.2358803079e-02    1.0166811719e+05
    2.2380566224e-02    1.0166588281e+05
    2.2402318195e-02    1.0166416406e+05
    2.2424057126e-02    1.0166239844e+05
    2.2445784882e-02    1.0165992969e+05
    2.2467501462e-02    1.0165716406e+05
    2.2489206865e-02    1.0165347656e+05
    2.2510899231e-02    1.0164994531e+05
    2.2532582283e-02    1.0163578906e+05
    2.2554252297e-02    1.0163141406e+05
    2.2575911134e-02    1.0161778906e+05
    2.2597560659e-02    1.0160960156e+05
    2.2619199008e-02    1.0160288281e+05
    2.2640828043e-02    1.0159266406e+05
    2.2662445903e-02    1.0158508594e+05
    2.2684050724e-02    1.0157239844e+05
    2.2705646232e-02    1.0155917969e+05
    2.2727232426e-02    1.0154582031e+05
    2.2748809308e-02    1.0153158594e+05
    2.2770375013e-02    1.0152153125e+05
    2.2791929543e-02    1.0151478125e+05
    2.2813472897e-02    1.0150458594e+05
    2.2835006937e-02    1.0148853906e+05
    2.2856531665e-02    1.0147700000e+05
    2.2878047079e-02    1.0146491406e+05
    2.2899549454e-02    1.0145369531e+05
    2.2921044379e-02    1.0144024219e+05
    2.2942528129e-02    1.0143103906e+05
    2.2964000702e-02    1.0142075781e+05
    2.2985465825e-02    1.0141719531e+05
    2.3006917909e-02    1.0141824219e+05
    2.3028360680e-02    1.0141284375e+05
    2.3049792275e-02    1.0141097656e+05
    2.3071214557e-02    1.0140725000e+05
    2.3092625663e-02    1.0141058594e+05
    2.3114029318e-02    1.0141191406e+05
    2.3135419935e-02    1.0142488281e+05
    2.3156799376e-02    1.0144297656e+05
    2.3178169504e-02    1.0145485156e+05
    2.3199530318e-02    1.0146953906e+05
    2.3220879957e-02    1.0148650781e+05
    2.3242218420e-02    1.0149735156e+05
    2.3263547570e-02    1.0151757031e+05
    2.3284865543e-02    1.0154058594e+05
    2.3306174204e-02    1.0156289844e+05
    2.3327469826e-02    1.0158321094e+05
    2.3348756135e-02    1.0160037500e+05
    2.3370031267e-02    1.0161605469e+05
    2.3391297087e-02    1.0164089844e+05
    2.3412553594e-02    1.0165596875e+05
    2.3433798924e-02    1.0166733594e+05
    2.3455033079e-02    1.0169100781e+05
    2.3476256058e-02    1.0170562500e+05
    2.3497469723e-02    1.0171908594e+05
    2.3518672213e-02    1.0173165625e+05
    2.3539865389e-02    1.0173812500e+05
    2.3561049253e-02    1.0174569531e+05
    2.3582221940e-02    1.0174828906e+05
    2.3603385314e-02    1.0175775781e+05
    2.3624535650e-02    1.0176675781e+05
    2.3645676672e-02    1.0177014844e+05
    2.3666808382e-02    1.0177346094e+05
    2.3687927052e-02    1.0178018750e+05
    2.3709038273e-02    1.0178643750e+05
    2.3730138317e-02    1.0178872656e+05
    2.3751227185e-02    1.0179132031e+05
    2.3772306740e-02    1.0179646875e+05
    2.3793375120e-02    1.0179784375e+05
    2.3814432323e-02    1.0180244531e+05
    2.3835480213e-02    1.0180846875e+05
    2.3856516927e-02    1.0181403906e+05
    2.3877544329e-02    1.0181940625e+05
    2.3898560554e-02    1.0182218750e+05
    2.3919565603e-02    1.0182534375e+05
    2.3940561339e-02    1.0182787500e+05
    2.3961545900e-02    1.0183558594e+05
    2.3982519284e-02    1.0184352344e+05
    2.4003483355e-02    1.0184871094e+05
    2.4024436250e-02    1.0185881250e+05
    2.4045377970e-02    1.0186280469e+05
    2.4066310376e-02    1.0187572656e+05
    2.4087233469e-02    1.0188539844e+05
    2.4108145386e-02    1.0189450000e+05
    2.4129044265e-02    1.0189930469e+05
    2.4149935693e-02    1.0190808594e+05
    2.4170814082e-02    1.0191678906e+05
    2.4191683158e-02    1.0192708594e+05
    2.4212542921e-02    1.0194221094e+05
    2.4233391508e-02    1.0194968750e+05
    2.4254228920e-02    1.0195859375e+05
    2.4275057018e-02    1.0197628906e+05
    2.4295873940e-02    1.0198113281e+05
    2.4316681549e-02    1.0198310156e+05
    2.4337477982e-02    1.0198253906e+05
    2.4358265102e-02    1.0197510156e+05
    2.4379042909e-02    1.0196944531e+05
    2.4399809539e-02    1.0196190625e+05
    2.4420566857e-02    1.0195502344e+05
    2.4441312999e-02    1.0193883594e+05
    2.4462047964e-02    1.0191239844e+05
    2.4482775480e-02    1.0188908594e+05
    2.4503491819e-02    1.0185256250e+05
    2.4524198845e-02    1.0181421875e+05
    2.4544894695e-02    1.0177416406e+05
    2.4565581232e-02    1.0173839844e+05
    2.4586258456e-02    1.0169460156e+05
    2.4606924504e-02    1.0165191406e+05
    2.4627581239e-02    1.0161018750e+05
    2.4648228660e-02    1.0157230469e+05
    2.4668866768e-02    1.0154327344e+05
    2.4689495564e-02    1.0151425000e+05
    2.4710113183e-02    1.0149950781e+05
    2.4730721489e-02    1.0148552344e+05
    2.4751318619e-02    1.0147860156e+05
    2.4771906435e-02    1.0148672656e+05
    2.4792486802e-02    1.0149912500e+05
    2.4813055992e-02    1.0151772656e+05
    2.4833614007e-02    1.0154427344e+05
    2.4854162708e-02    1.0157625000e+05
    2.4874702096e-02    1.0160257031e+05
    2.4895232171e-02    1.0163271094e+05
    2.4915752932e-02    1.0166705469e+05
    2.4936262518e-02    1.0169509375e+05
    2.4956764653e-02    1.0173011719e+05
    2.4977253750e-02    1.0176521094e+05
    2.4997735396e-02    1.0179578906e+05
    2.5018205866e-02    1.0182261719e+05
    2.5038668886e-02    1.0184800000e+05
    2.5059120730e-02    1.0187522656e+05
    2.5079563260e-02    1.0189550781e+05
    2.5099996477e-02    1.0191483594e+05
    2.5120420381e-02    1.0193410156e+05
    2.5140833110e-02    1.0195271094e+05
    2.5161236525e-02    1.0196992969e+05
    2.5181630626e-02    1.0198738281e+05
    2.5202017277e-02    1.0199436719e+05
    2.5222390890e-02    1.0201188281e+05
    2.5242757052e-02    1.0202803125e+05
    2.5263112038e-02    1.0204457031e+05
    2.5283459574e-02    1.0205488281e+05
    2.5303795934e-02    1.0206596875e+05
    2.5324124843e-02    1.0207997656e+05
    2.5344440714e-02    1.0208400000e+05
    2.5364749134e-02    1.0209646094e+05
    2.5385048240e-02    1.0209885156e+05
    2.5405339897e-02    1.0209916406e+05
    2.5425618514e-02    1.0210527344e+05
    2.5445887819e-02    1.0210530469e+05
    2.5466147810e-02    1.0210427344e+05
    2.5486400351e-02    1.0210390625e+05
    2.5506639853e-02    1.0210368750e+05
    2.5526873767e-02    1.0209643750e+05
    2.5547094643e-02    1.0209156250e+05
    2.5567308068e-02    1.0208796094e+05
    2.5587510318e-02    1.0208239844e+05
    2.5607703254e-02    1.0207624219e+05
    2.5627886876e-02    1.0208116406e+05
    2.5648061186e-02    1.0207427344e+05
    2.5668226182e-02    1.0207747656e+05
    2.5688380003e-02    1.0207250000e+05
    2.5708526373e-02    1.0207660156e+05
    2.5728661567e-02    1.0207514844e+05
    2.5748789310e-02    1.0207719531e+05
    2.5768904015e-02    1.0208068750e+05
    2.5789011270e-02    1.0208546875e+05
    2.5809109211e-02    1.0208450781e+05
    2.5829195976e-02    1.0209307031e+05
    2.5849273428e-02    1.0209478906e+05
    2.5869343430e-02    1.0209825000e+05
    2.5889402255e-02    1.0209835156e+05
    2.5909451768e-02    1.0209833594e+05
    2.5929493830e-02    1.0209564844e+05
    2.5949522853e-02    1.0209307031e+05
    2.5969544426e-02    1.0209002344e+05
    2.5989556685e-02    1.0208424219e+05
    2.6009559631e-02    1.0207630469e+05
    2.6029553264e-02    1.0206667969e+05
    2.6049537584e-02    1.0206089844e+05
    2.6069512591e-02    1.0205321875e+05
    2.6089478284e-02    1.0203541406e+05
    2.6109432802e-02    1.0202622656e+05
    2.6129379869e-02    1.0200625000e+05
    2.6149315760e-02    1.0198575000e+05
    2.6169244200e-02    1.0197285156e+05
    2.6189163327e-02    1.0195921875e+05
    2.6209073141e-02    1.0193925000e+05
    2.6228975505e-02    1.0192078906e+05
    2.6248866692e-02    1.0190652344e+05
    2.6268748567e-02    1.0189289844e+05
    2.6288621128e-02    1.0187411719e+05
    2.6308484375e-02    1.0186016406e+05
    2.6328338310e-02    1.0184487500e+05
    2.6348184794e-02    1.0183342969e+05
    2.6368021965e-02    1.0182177344e+05
    2.6387847960e-02    1.0181661719e+05
    2.6407664642e-02    1.0181224219e+05
    2.6427472010e-02    1.0181485156e+05
    2.6447271928e-02    1.0181558594e+05
    2.6467062533e-02    1.0181521875e+05
    2.6486843824e-02    1.0181788281e+05
    2.6506617665e-02    1.0182615625e+05
    2.6526380330e-02    1.0182641406e+05
    2.6546133682e-02    1.0183697656e+05
    2.6565877721e-02    1.0184763281e+05
    2.6585612446e-02    1.0185494531e+05
    2.6605339721e-02    1.0186411719e+05
    2.6625057682e-02    1.0187093750e+05
    2.6644766331e-02    1.0188178906e+05
    2.6664465666e-02    1.0188769531e+05
    2.6684155688e-02    1.0189415625e+05
    2.6703836396e-02    1.0190910156e+05
    2.6723509654e-02    1.0191285156e+05
    2.6743173599e-02    1.0191675000e+05
    2.6762828231e-02    1.0192064844e+05
    2.6782475412e-02    1.0192333594e+05
    2.6802113280e-02    1.0192547656e+05
    2.6821739972e-02    1.0192682031e+05
    2.6841359213e-02    1.0192911719e+05
    2.6860967278e-02    1.0192940625e+05
    2.6880569756e-02    1.0193121094e+05
    2.6900164783e-02    1.0193265625e+05
    2.6919748634e-02    1.0193271094e+05
    2.6939325035e-02    1.0192914844e+05
    2.6958892122e-02    1.0192999219e+05
    2.6978449896e-02    1.0193358594e+05
    2.6997998357e-02    1.0193375781e+05
    2.7017539367e-02    1.0193559375e+05
    2.7037071064e-02    1.0193262500e+05
    2.7056595311e-02    1.0193819531e+05
    2.7076110244e-02    1.0194525000e+05
    2.7095617726e-02    1.0194865625e+05
    2.7115115896e-02    1.0195239844e+05
    2.7134604752e-02    1.0196091406e+05
    2.7154086158e-02    1.0196639844e+05
    2.7173558250e-02    1.0197156250e+05
    2.7193021029e-02    1.0197352344e+05
    2.7212476358e-02    1.0198425000e+05
    2.7231922373e-02    1.0199178906e+05
    2.7251357213e-02    1.0199602344e+05
    2.7270786464e-02    1.0200269531e+05
    2.7290204540e-02    1.0200719531e+05
    2.7309613302e-02    1.0201152344e+05
    2.7329014614e-02    1.0200763281e+05
    2.7348404750e-02    1.0201418750e+05
    2.7367785573e-02    1.0202283594e+05
    2.7387158945e-02    1.0202580469e+05
    2.7406521142e-02    1.0202160156e+05
    2.7425874025e-02    1.0202287500e+05
    2.7445219457e-02    1.0202497656e+05
    2.7464553714e-02    1.0202380469e+05
    2.7483878657e-02    1.0202208594e+05
    2.7503194287e-02    1.0202164844e+05
    2.7522502467e-02    1.0201727344e+05
    2.7541799471e-02    1.0201852344e+05
    2.7561087161e-02    1.0201850781e+05
    2.7580365539e-02    1.0201491406e+05
    2.7599634603e-02    1.0200956250e+05
    2.7618894354e-02    1.0200866406e+05
    2.7638144791e-02    1.0200885156e+05
    2.7657385916e-02    1.0200783594e+05
    2.7676619589e-02    1.0200787500e+05
    2.7695843950e-02    1.0200790625e+05
    2.7715058997e-02    1.0200835156e+05
    2.7734262869e-02    1.0200764844e+05
    2.7753459290e-02    1.0200728906e+05
    2.7772648260e-02    1.0200696094e+05
    2.7791827917e-02    1.0200703906e+05
    2.7810998261e-02    1.0200175000e+05
    2.7830159292e-02    1.0199830469e+05
    2.7849311009e-02    1.0200705469e+05
    2.7868455276e-02    1.0200691406e+05
    2.7887590230e-02    1.0200818750e+05
    2.7906717733e-02    1.0200784375e+05
    2.7925835922e-02    1.0200769531e+05
    2.7944946662e-02    1.0201288281e+05
    2.7964048088e-02    1.0201791406e+05
    2.7983140200e-02    1.0201437500e+05
    2.8002224863e-02    1.0201552344e+05
    2.8021300212e-02    1.0201690625e+05
    2.8040368110e-02    1.0201817969e+05
    2.8059426695e-02    1.0202111719e+05
    2.8078475967e-02    1.0202405469e+05
    2.8097519651e-02    1.0202472656e+05
    2.8116554022e-02    1.0202553906e+05
    2.8135580942e-02    1.0202650000e+05
    2.8154598549e-02    1.0202874219e+05
    2.8173606843e-02    1.0202996875e+05
    2.8192607686e-02    1.0203249219e+05
    2.8211599216e-02    1.0203411719e+05
    2.8230583295e-02    1.0203714844e+05
    2.8249559924e-02    1.0204268750e+05
    2.8268527240e-02    1.0205190625e+05
    2.8287487105e-02    1.0205212500e+05
    2.8306435794e-02    1.0205222656e+05
    2.8325378895e-02    1.0205430469e+05
    2.8344312683e-02    1.0205191406e+05
    2.8363237157e-02    1.0205508594e+05
    2.8382156044e-02    1.0205706250e+05
    2.8401065618e-02    1.0205781250e+05
    2.8419965878e-02    1.0206206250e+05
    2.8438858688e-02    1.0206096094e+05
    2.8457742184e-02    1.0206208594e+05
    2.8476616368e-02    1.0206239844e+05
    2.8495483100e-02    1.0206240625e+05
    2.8514338657e-02    1.0205891406e+05
    2.8533160686e-02    1.0205490625e+05
    2.8551930562e-02    1.0205475000e+05
    2.8570635244e-02    1.0205453906e+05
    2.8589271009e-02    1.0205496094e+05
    2.8607837856e-02    1.0206002344e+05
    2.8626350686e-02    1.0206124219e+05
    2.8644818813e-02    1.0205684375e+05
    2.8663259000e-02    1.0206214844e+05
    2.8681686148e-02    1.0206268750e+05
    2.8700113297e-02    1.0205717969e+05
    2.8718546033e-02    1.0205733594e+05
    2.8736986220e-02    1.0205744531e+05
    2.8755431995e-02    1.0205735156e+05
    2.8773877770e-02    1.0205850781e+05
    2.8792314231e-02    1.0205844531e+05
    2.8810730204e-02    1.0205844531e+05
    2.8829116374e-02    1.0205847656e+05
    2.8847465292e-02    1.0205863281e+05
    2.8865773231e-02    1.0206133594e+05
    2.8884036466e-02    1.0206550000e+05
    2.8902258724e-02    1.0207125781e+05
    2.8920443729e-02    1.0206786719e+05
    2.8938598931e-02    1.0206414844e+05
    2.8956729919e-02    1.0206622656e+05
    2.8974846005e-02    1.0206603906e+05
    2.8992949054e-02    1.0207053125e+05
    2.9011042789e-02    1.0207741406e+05
    2.9029129073e-02    1.0206933594e+05
    2.9047204182e-02    1.0207027344e+05
    2.9065268114e-02    1.0207628906e+05
    2.9083315283e-02    1.0207653125e+05
    2.9101338238e-02    1.0207411719e+05
    2.9119335115e-02    1.0207625000e+05
    2.9137304053e-02    1.0207724219e+05
    2.9155241325e-02    1.0207597656e+05
    2.9173148796e-02    1.0207805469e+05
    2.9191024601e-02    1.0207816406e+05
    2.9208874330e-02    1.0207808594e+05
    2.9226697981e-02    1.0207850000e+05
    2.9244501144e-02    1.0207877344e+05
    2.9262285680e-02    1.0208002344e+05
    2.9280053452e-02    1.0206962500e+05
    2.9297806323e-02    1.0206962500e+05
    2.9315544292e-02    1.0207975000e+05
    2.9333265498e-02    1.0207988281e+05
    2.9350971803e-02    1.0208202344e+05
    2.9368655756e-02    1.0208327344e+05
    2.9386319220e-02    1.0208516406e+05
    2.9403960332e-02    1.0208764844e+05
    2.9421577230e-02    1.0208708594e+05
    2.9439168051e-02    1.0208760156e+05
    2.9456734657e-02    1.0208908594e+05
    2.9474277049e-02    1.0209039844e+05
    2.9491795227e-02    1.0209035156e+05
    2.9509292915e-02    1.0209187500e+05
    2.9526771978e-02    1.0208872656e+05
    2.9544232413e-02    1.0209066406e+05
    2.9561674222e-02    1.0209175781e+05
    2.9579099268e-02    1.0209266406e+05
    2.9596509412e-02    1.0209384375e+05
    2.9613900930e-02    1.0209760156e+05
    2.9631273821e-02    1.0210719531e+05
    2.9648626223e-02    1.0210892969e+05
    2.9665958136e-02    1.0210583594e+05
    2.9683271423e-02    1.0210280469e+05
    2.9700560495e-02    1.0210547656e+05
    2.9717829078e-02    1.0211047656e+05
    2.9735075310e-02    1.0211646094e+05
    2.9752301052e-02    1.0211209375e+05
    2.9769508168e-02    1.0211117969e+05
    2.9786696658e-02    1.0211612500e+05
    2.9803866521e-02    1.0211743750e+05
    2.9821017757e-02    1.0211871875e+05
    2.9838152230e-02    1.0211416406e+05
    2.9855269939e-02    1.0211997656e+05
    2.9872370884e-02    1.0212371094e+05
    2.9889453202e-02    1.0212283594e+05
    2.9906518757e-02    1.0211827344e+05
    2.9923565686e-02    1.0212064844e+05
    2.9940593988e-02    1.0212178125e+05
    2.9957601801e-02    1.0212397656e+05
    2.9974590987e-02    1.0212371094e+05
    2.9991561547e-02    1.0212556250e+05
    3.0008511618e-02    1.0212503906e+05
    3.0025444925e-02    1.0212444531e+05
    3.0042361468e-02    1.0212608594e+05
    3.0059259385e-02    1.0212471094e+05
    3.0076142401e-02    1.0212372656e+05
    3.0093006790e-02    1.0211928906e+05
    3.0109854415e-02    1.0211468750e+05
    3.0126683414e-02    1.0211541406e+05
    3.0143497512e-02    1.0212257031e+05
    3.0160292983e-02    1.0212535156e+05
    3.0177071691e-02    1.0212517969e+05
    3.0193833634e-02    1.0211814844e+05
    3.0210576952e-02    1.0211834375e+05
    3.0227303505e-02    1.0211840625e+05
    3.0244011432e-02    1.0211814844e+05
    3.0260702595e-02    1.0211289844e+05
    3.0277376994e-02    1.0210737500e+05
    3.0294034630e-02    1.0210612500e+05
    3.0310675502e-02    1.0209859375e+05
    3.0327299610e-02    1.0209210156e+05
    3.0343905091e-02    1.0208999219e+05
    3.0360495672e-02    1.0208771094e+05
    3.0377071351e-02    1.0208533594e+05
    3.0393628404e-02    1.0207802344e+05
    3.0410168692e-02    1.0207071875e+05
    3.0426690355e-02    1.0206753125e+05
    3.0443195254e-02    1.0206419531e+05
    3.0459685251e-02    1.0205140625e+05
    3.0476156622e-02    1.0204762500e+05
    3.0492611229e-02    1.0204491406e+05
    3.0509050936e-02    1.0204002344e+05
    3.0525473878e-02    1.0203739844e+05
    3.0541881919e-02    1.0203365625e+05
    3.0558273196e-02    1.0202997656e+05
    3.0574647710e-02    1.0202750000e+05
    3.0591005459e-02    1.0202406250e+05
    3.0607348308e-02    1.0202085156e+05
    3.0623674393e-02    1.0202833594e+05
    3.0639985576e-02    1.0202586719e+05
    3.0656279996e-02    1.0202842969e+05
    3.0672557652e-02    1.0203064844e+05
    3.0688818544e-02    1.0202875781e+05
    3.0705062672e-02    1.0203755469e+05
    3.0721291900e-02    1.0203714844e+05
    3.0737506226e-02    1.0204758594e+05
    3.0753703788e-02    1.0205255469e+05
    3.0769886449e-02    1.0205977344e+05
    3.0786054209e-02    1.0207127344e+05
    3.0802207068e-02    1.0207900781e+05
    3.0818343163e-02    1.0208830469e+05
    3.0834466219e-02    1.0209252344e+05
    3.0850572512e-02    1.0210635156e+05
    3.0866663903e-02    1.0211253125e+05
    3.0882738531e-02    1.0211793750e+05
    3.0898798257e-02    1.0213278906e+05
    3.0914843082e-02    1.0213866406e+05
    3.0930871144e-02    1.0214569531e+05
    3.0946886167e-02    1.0214671094e+05
    3.0962884426e-02    1.0214896094e+05
    3.0978867784e-02    1.0215328125e+05
    3.0994836241e-02    1.0215868750e+05
    3.1010789797e-02    1.0216347656e+05
    3.1026728451e-02    1.0217175781e+05
    3.1042650342e-02    1.0217412500e+05
    3.1058559194e-02    1.0217900000e+05
    3.1074455008e-02    1.0217896875e+05
    3.1090334058e-02    1.0217739844e+05
    3.1106200069e-02    1.0217121094e+05
    3.1122051179e-02    1.0217252344e+05
    3.1137887388e-02    1.0216652344e+05
    3.1153710559e-02    1.0216710156e+05
    3.1169516966e-02    1.0216769531e+05
    3.1185310334e-02    1.0216942969e+05
    3.1201090664e-02    1.0216990625e+05
    3.1216854230e-02    1.0217119531e+05
    3.1232602894e-02    1.0216283594e+05
    3.1248336658e-02    1.0216196094e+05
    3.1264055520e-02    1.0215253125e+05
    3.1279761344e-02    1.0215185156e+05
    3.1295452267e-02    1.0215097656e+05
    3.1311132014e-02    1.0214885156e+05
    3.1326796860e-02    1.0214319531e+05
    3.1342446804e-02    1.0213716406e+05
    3.1358085573e-02    1.0213513281e+05
    3.1373709440e-02    1.0213231250e+05
    3.1389318407e-02    1.0212983594e+05
    3.1404916197e-02    1.0212822656e+05
    3.1420499086e-02    1.0212171875e+05
    3.1436067075e-02    1.0211459375e+05
    3.1451620162e-02    1.0211194531e+05
    3.1467158347e-02    1.0211413281e+05
    3.1482685357e-02    1.0211636719e+05
    3.1498193741e-02    1.0211433594e+05
    3.1513694674e-02    1.0211306250e+05
    3.1529176980e-02    1.0211067969e+05
    3.1544648111e-02    1.0211011719e+05
    3.1560108066e-02    1.0210858594e+05
    3.1575553119e-02    1.0210837500e+05
    3.1590986997e-02    1.0210725781e+05
    3.1606405973e-02    1.0211210156e+05
    3.1621813774e-02    1.0211532031e+05
    3.1637206674e-02    1.0211466406e+05
    3.1652588397e-02    1.0211515625e+05
    3.1667951494e-02    1.0211511719e+05
    3.1683307141e-02    1.0211385156e+05
    3.1698647887e-02    1.0210796875e+05
    3.1713977456e-02    1.0211316406e+05
    3.1729292125e-02    1.0211028906e+05
    3.1744595617e-02    1.0210635156e+05
    3.1759884208e-02    1.0210339844e+05
    3.1775161624e-02    1.0210268750e+05
    3.1790427864e-02    1.0210205469e+05
    3.1805675477e-02    1.0210627344e+05
    3.1820915639e-02    1.0211049219e+05
    3.1836140901e-02    1.0211031250e+05
    3.1851354986e-02    1.0210197656e+05
    3.1866557896e-02    1.0210050000e+05
    3.1881745905e-02    1.0210305469e+05
    3.1896922737e-02    1.0210900781e+05
    3.1912088394e-02    1.0210871875e+05
    3.1927239150e-02    1.0210666406e+05
    3.1942378730e-02    1.0210342969e+05
    3.1957507133e-02    1.0210741406e+05
    3.1972620636e-02    1.0210580469e+05
    3.1987726688e-02    1.0210532031e+05
    3.2002814114e-02    1.0210366406e+05
    3.2017890364e-02    1.0209855469e+05
    3.2032959163e-02    1.0209339844e+05
    3.2048013061e-02    1.0209747656e+05
    3.2063052058e-02    1.0209912500e+05
    3.2078083605e-02    1.0210080469e+05
    3.2093103975e-02    1.0210039844e+05
    3.2108109444e-02    1.0209997656e+05
    3.2123107463e-02    1.0209844531e+05
    3.2138090581e-02    1.0209350000e+05
    3.2153062522e-02    1.0209753125e+05
    3.2168023288e-02    1.0209828125e+05
    3.2182972878e-02    1.0209909375e+05
    3.2197911292e-02    1.0209835156e+05
    3.2212834805e-02    1.0209896094e+05
    3.2227750868e-02    1.0209924219e+05
    3.2242652029e-02    1.0210902344e+05
    3.2257542014e-02    1.0210985156e+05
    3.2272424549e-02    1.0211080469e+05
    3.2287292182e-02    1.0211071875e+05
    3.2302148640e-02    1.0211290625e+05
    3.2316997647e-02    1.0211449219e+05
    3.2331831753e-02    1.0211549219e+05
    3.2346658409e-02    1.0211589844e+05
    3.2361470163e-02    1.0211196094e+05
    3.2376270741e-02    1.0210808594e+05
    3.2391063869e-02    1.0210853125e+05
    3.2405842096e-02    1.0210900781e+05
    3.2420612872e-02    1.0210963281e+05
    3.2435368747e-02    1.0211383594e+05
    3.2450113446e-02    1.0211924219e+05
    3.2464850694e-02    1.0211763281e+05
    3.2479573041e-02    1.0211789844e+05
    3.2494287938e-02    1.0211350781e+05
    3.2508991659e-02    1.0211412500e+05
    3.2523684204e-02    1.0211764844e+05
    3.2538365573e-02    1.0211577344e+05
    3.2553035766e-02    1.0211678906e+05
    3.2567698509e-02    1.0211721875e+05
    3.2582346350e-02    1.0211756250e+05
    3.2596986741e-02    1.0211797656e+05
    3.2611619681e-02    1.0211842969e+05
    3.2626237720e-02    1.0211825781e+05
    3.2640848309e-02    1.0211799219e+05
    3.2655447721e-02    1.0211802344e+05
    3.2670035958e-02    1.0211792969e+05
    3.2684613019e-02    1.0210906250e+05
    3.2699178904e-02    1.0210928125e+05
    3.2713737339e-02    1.0210902344e+05
    3.2728284597e-02    1.0211810156e+05
    3.2742820680e-02    1.0211802344e+05
    3.2757349312e-02    1.0211562500e+05
    3.2771866769e-02    1.0210835156e+05
    3.2786373049e-02    1.0210786719e+05
    3.2800871879e-02    1.0210746094e+05
    3.2815355808e-02    1.0211160156e+05
    3.2829832286e-02    1.0211602344e+05
    3.2844301313e-02    1.0211627344e+05
    3.2858755440e-02    1.0211087500e+05
    3.2873202115e-02    1.0210583594e+05
    3.2887637615e-02    1.0210547656e+05
    3.2902065665e-02    1.0210638281e+05
    3.2916482538e-02    1.0210733594e+05
    3.2930891961e-02    1.0210791406e+05
    3.2945290208e-02    1.0210600000e+05
    3.2959677279e-02    1.0210469531e+05
    3.2974056900e-02    1.0210557031e+05
    3.2988425344e-02    1.0210522656e+05
    3.3002786338e-02    1.0210471875e+05
    3.3017136157e-02    1.0210397656e+05
    3.3031478524e-02    1.0209393750e+05
    3.3045809716e-02    1.0209419531e+05
    3.3060129732e-02    1.0209910156e+05
    3.3074442297e-02    1.0210091406e+05
    3.3088747412e-02    1.0210052344e+05
    3.3103041351e-02    1.0210136719e+05
    3.3117324114e-02    1.0210052344e+05
    3.3131599426e-02    1.0210069531e+05
    3.3145863563e-02    1.0209911719e+05
    3.3160120249e-02    1.0209958594e+05
    3.3174365759e-02    1.0209309375e+05
    3.3188603818e-02    1.0208859375e+05
    3.3202830702e-02    1.0208509375e+05
    3.3217050135e-02    1.0208669531e+05
    3.3231258392e-02    1.0208483594e+05
    3.3245459199e-02    1.0208353906e+05
    3.3259648830e-02    1.0208296094e+05
    3.3273831010e-02    1.0208464844e+05
    3.3288005739e-02    1.0208352344e+05
    3.3302169293e-02    1.0207763281e+05
    3.3316325396e-02    1.0207985156e+05
    3.3330474049e-02    1.0207716406e+05
    3.3344611526e-02    1.0207927344e+05
    3.3358741552e-02    1.0207850781e+05
    3.3372864127e-02    1.0207309375e+05
    3.3386975527e-02    1.0207927344e+05
    3.3401079476e-02    1.0207877344e+05
    3.3415172249e-02    1.0207928906e+05
    3.3429257572e-02    1.0207406250e+05
    3.3443335444e-02    1.0207097656e+05
    3.3457405865e-02    1.0207233594e+05
    3.3471468836e-02    1.0207155469e+05
    3.3485524356e-02    1.0206746094e+05
    3.3499568701e-02    1.0207591406e+05
    3.3513605595e-02    1.0207302344e+05
    3.3527631313e-02    1.0206993750e+05
    3.3541653305e-02    1.0206427344e+05
    3.3555664122e-02    1.0206189844e+05
    3.3569667488e-02    1.0206055469e+05
    3.3583663404e-02    1.0205921094e+05
    3.3597648144e-02    1.0205782031e+05
    3.3611625433e-02    1.0205643750e+05
    3.3625595272e-02    1.0205612500e+05
    3.3639557660e-02    1.0205460156e+05
    3.3653512597e-02    1.0205314844e+05
    3.3667460084e-02    1.0205172656e+05
    3.3681396395e-02    1.0204922656e+05
    3.3695328981e-02    1.0204793750e+05
    3.3709254116e-02    1.0204671875e+05
    3.3723168075e-02    1.0204556250e+05
    3.3737078309e-02    1.0204436719e+05
    3.3750977367e-02    1.0204414844e+05
    3.3764872700e-02    1.0203703125e+05
    3.3778760582e-02    1.0203186719e+05
    3.3792637289e-02    1.0203008594e+05
    3.3806510270e-02    1.0202706250e+05
    3.3820372075e-02    1.0203083594e+05
    3.3834230155e-02    1.0202791406e+05
    3.3848077059e-02    1.0203078906e+05
    3.3861916512e-02    1.0202841406e+05
    3.3875752240e-02    1.0202716406e+05
    3.3889576793e-02    1.0202305469e+05
    3.3903393894e-02    1.0201419531e+05
    3.3917203546e-02    1.0201212500e+05
    3.3931009471e-02    1.0201000781e+05
    3.3944804221e-02    1.0200790625e+05
    3.3958595246e-02    1.0200585156e+05
    3.3972378820e-02    1.0200496094e+05
    3.3986151218e-02    1.0200196875e+05
    3.3999919891e-02    1.0200019531e+05
    3.4013681114e-02    1.0200312500e+05
    3.4027434886e-02    1.0200321094e+05
    3.4041177481e-02    1.0199547656e+05
    3.4054916352e-02    1.0199632031e+05
    3.4068647772e-02    1.0199250000e+05
    3.4082375467e-02    1.0199218750e+05
    3.4096091986e-02    1.0199080469e+05
    3.4109804779e-02    1.0198946094e+05
    3.4123510122e-02    1.0198858594e+05
    3.4137208015e-02    1.0198664844e+05
    3.4150898457e-02    1.0199435156e+05
    3.4164581448e-02    1.0198371094e+05
    3.4178260714e-02    1.0198207031e+05
    3.4191932529e-02    1.0198274219e+05
    3.4205596894e-02    1.0197952344e+05
    3.4219253808e-02    1.0197678906e+05
    3.4232903272e-02    1.0197575781e+05
    3.4246545285e-02    1.0197416406e+05
    3.4260183573e-02    1.0197257031e+05
    3.4273810685e-02    1.0197103125e+05
    3.4287434071e-02    1.0197002344e+05
    3.4301050007e-02    1.0196896094e+05
    3.4314658493e-02    1.0196722656e+05
    3.4328263253e-02    1.0196537500e+05
    3.4341860563e-02    1.0196341406e+05
    3.4355450422e-02    1.0196138281e+05
    3.4369036555e-02    1.0196047656e+05
    3.4382611513e-02    1.0195839844e+05
    3.4396182746e-02    1.0195396094e+05
    3.4409742802e-02    1.0194953906e+05
    3.4423299134e-02    1.0195224219e+05
    3.4436848015e-02    1.0194927344e+05
    3.4450393170e-02    1.0194746094e+05
    3.4463927150e-02    1.0194568750e+05
    3.4477461129e-02    1.0194518750e+05
    3.4490987659e-02    1.0194474219e+05
    3.4504506737e-02    1.0194203906e+05
    3.4518022090e-02    1.0194049219e+05
    3.4531529993e-02    1.0193900781e+05
    3.4545030445e-02    1.0193763281e+05
    3.4558523446e-02    1.0193744531e+05
    3.4572008997e-02    1.0193625781e+05
    3.4585487098e-02    1.0193512500e+05
    3.4598957747e-02    1.0193400781e+05
    3.4612424672e-02    1.0193161719e+05
    3.4625884145e-02    1.0193025000e+05
    3.4639336169e-02    1.0192864844e+05
    3.4652780741e-02    1.0192566406e+05
    3.4666225314e-02    1.0191906250e+05
    3.4679658711e-02    1.0191209375e+05
    3.4693088382e-02    1.0191077344e+05
    3.4706510603e-02    1.0190828906e+05
    3.4719929099e-02    1.0190580469e+05
    3.4733340144e-02    1.0190222656e+05
    3.4746743739e-02    1.0189991406e+05
    3.4760143608e-02    1.0189989844e+05
    3.4773536026e-02    1.0189831250e+05
    3.4786924720e-02    1.0189802344e+05
    3.4800305963e-02    1.0189611719e+05
    3.4813679755e-02    1.0189414844e+05
    3.4827046096e-02    1.0189214844e+05
    3.4840408713e-02    1.0188430469e+05
    3.4853763878e-02    1.0188339844e+05
    3.4867111593e-02    1.0188139844e+05
    3.4880455583e-02    1.0188052344e+05
    3.4893795848e-02    1.0187856250e+05
    3.4907124937e-02    1.0187546094e+05
    3.4920454025e-02    1.0187347656e+05
    3.4933775663e-02    1.0187503906e+05
    3.4947093576e-02    1.0187197656e+05
    3.4960404038e-02    1.0186769531e+05
    3.4973710775e-02    1.0186688281e+05
    3.4987010062e-02    1.0186378125e+05
endcurve
