Curveplot
LS-DYNA keyword deck by LS-PrePost                          
Time
Pressure
Defined Connection
Pressure @ 59 #pts=1745
* Minval=     9.9604031250e+04 at time=         0.0160207022
* Maxval=     1.6874645312e+05 at time=         0.0068455408
    0.0000000000e+00    9.9999093750e+04
    3.3812357287e-05    9.9999093750e+04
    6.1326652940e-05    9.9996898438e+04
    8.9102875791e-05    9.9999242188e+04
    1.1682785407e-04    9.9999460938e+04
    1.4461828687e-04    9.9999812500e+04
    1.7236733402e-04    9.9998054688e+04
    2.0016246708e-04    1.0000892969e+05
    2.2795486439e-04    1.0000155469e+05
    2.5574557367e-04    1.0000158594e+05
    2.8353667585e-04    1.0000008594e+05
    3.1133697485e-04    9.9989351562e+04
    3.3912662184e-04    1.0000050000e+05
    3.6691734567e-04    1.0000071875e+05
    3.9470891352e-04    1.0000110156e+05
    4.2249175021e-04    9.9999406250e+04
    4.5027161832e-04    1.0001137500e+05
    4.7804549104e-04    1.0000263281e+05
    5.0581363030e-04    9.9993289062e+04
    5.3357944125e-04    1.0000189844e+05
    5.6134146871e-04    9.9994835938e+04
    5.8909942163e-04    9.9999148438e+04
    6.1685312539e-04    1.0000169531e+05
    6.4460188150e-04    1.0000011719e+05
    6.7234638846e-04    1.0000271875e+05
    7.0008635521e-04    9.9999789062e+04
    7.2782178177e-04    9.9998750000e+04
    7.5555208605e-04    9.9997429688e+04
    7.8327720985e-04    1.0000303906e+05
    8.1099680392e-04    1.0000213281e+05
    8.3871174138e-04    1.0000297656e+05
    8.6642213864e-04    1.0000021094e+05
    8.9412782108e-04    9.9996468750e+04
    9.2182843946e-04    9.9998367188e+04
    9.4952445943e-04    1.0000165625e+05
    9.7721535712e-04    1.0000044531e+05
    1.0049008997e-03    1.0000027344e+05
    1.0325826006e-03    1.0000141406e+05
    1.0602590628e-03    1.0000002344e+05
    1.0879321489e-03    1.0000018750e+05
    1.1155996472e-03    1.0000331250e+05
    1.1432634201e-03    1.0000203906e+05
    1.1709230021e-03    9.9991679688e+04
    1.1985785095e-03    9.9991617188e+04
    1.2262313394e-03    1.0000090625e+05
    1.2538790470e-03    1.0001097656e+05
    1.2815232622e-03    1.0001197656e+05
    1.3091630535e-03    1.0000271094e+05
    1.3368004002e-03    9.9995187500e+04
    1.3644339051e-03    1.0000337500e+05
    1.3920635683e-03    1.0002564844e+05
    1.4196902048e-03    1.0005262500e+05
    1.4473132323e-03    1.0010484375e+05
    1.4749332331e-03    1.0019046094e+05
    1.5025498578e-03    1.0032743750e+05
    1.5301633393e-03    1.0052402344e+05
    1.5577742597e-03    1.0077440625e+05
    1.5853822697e-03    1.0108958594e+05
    1.6129877185e-03    1.0146427344e+05
    1.6405890929e-03    1.0186424219e+05
    1.6681876732e-03    1.0225777344e+05
    1.6957829939e-03    1.0260016406e+05
    1.7233766848e-03    1.0286817969e+05
    1.7509678146e-03    1.0305127344e+05
    1.7785291420e-03    1.0313677344e+05
    1.8060547300e-03    1.0313991406e+05
    1.8335470231e-03    1.0305481250e+05
    1.8610082334e-03    1.0291543750e+05
    1.8884401070e-03    1.0275153906e+05
    1.9158447394e-03    1.0257999219e+05
    1.9432241097e-03    1.0241671875e+05
    1.9705800805e-03    1.0229277344e+05
    1.9979148638e-03    1.0222010156e+05
    2.0252298564e-03    1.0219089844e+05
    2.0525271539e-03    1.0221275000e+05
    2.0798076876e-03    1.0227210156e+05
    2.1070730872e-03    1.0234602344e+05
    2.1343247499e-03    1.0242153906e+05
    2.1615643054e-03    1.0248416406e+05
    2.1887931507e-03    1.0252421094e+05
    2.2160108201e-03    1.0254280469e+05
    2.2432196420e-03    1.0253940625e+05
    2.2704207804e-03    1.0251866406e+05
    2.2976147011e-03    1.0247978906e+05
    2.3248014040e-03    1.0244036719e+05
    2.3519827519e-03    1.0241116406e+05
    2.3791582789e-03    1.0239375000e+05
    2.4063293822e-03    1.0238952344e+05
    2.4334960617e-03    1.0238841406e+05
    2.4606597144e-03    1.0239961719e+05
    2.4878205732e-03    1.0240866406e+05
    2.5149781723e-03    1.0242342969e+05
    2.5421329774e-03    1.0243974219e+05
    2.5692859199e-03    1.0244627344e+05
    2.5964374654e-03    1.0244671094e+05
    2.6235871483e-03    1.0244685156e+05
    2.6507352013e-03    1.0243499219e+05
    2.6778825559e-03    1.0243050781e+05
    2.7050296776e-03    1.0242127344e+05
    2.7321761008e-03    1.0241606250e+05
    2.7593218256e-03    1.0242018750e+05
    2.7864677832e-03    1.0242142969e+05
    2.8136142064e-03    1.0242271094e+05
    2.8407603968e-03    1.0243288281e+05
    2.8679079842e-03    1.0244027344e+05
    2.8950548731e-03    1.0246162500e+05
    2.9222022276e-03    1.0248702344e+05
    2.9493502807e-03    1.0252185156e+05
    2.9764990322e-03    1.0257064844e+05
    3.0036487151e-03    1.0264388281e+05
    3.0307997949e-03    1.0272597656e+05
    3.0579508748e-03    1.0281222656e+05
    3.0851035845e-03    1.0291618750e+05
    3.1122572254e-03    1.0302166406e+05
    3.1394117977e-03    1.0312296094e+05
    3.1665677670e-03    1.0320418750e+05
    3.1937246677e-03    1.0325822656e+05
    3.2208829653e-03    1.0329990625e+05
    3.2480424270e-03    1.0331050781e+05
    3.2752046827e-03    1.0329566406e+05
    3.2952371985e-03    1.0325502344e+05
    3.3145032357e-03    1.0321850781e+05
    3.3336398192e-03    1.0317890625e+05
    3.3528339118e-03    1.0314196094e+05
    3.3720366191e-03    1.0310391406e+05
    3.3912549261e-03    1.0306474219e+05
    3.4104890656e-03    1.0302521094e+05
    3.4297339153e-03    1.0298091406e+05
    3.4486323129e-03    1.0293207031e+05
    3.4671388566e-03    1.0287903125e+05
    3.4854323603e-03    1.0283015625e+05
    3.5036695190e-03    1.0276922656e+05
    3.5219141282e-03    1.0270427344e+05
    3.5401545465e-03    1.0263528125e+05
    3.5583588760e-03    1.0256309375e+05
    3.5765271168e-03    1.0248946094e+05
    3.5946895368e-03    1.0242780469e+05
    3.6139658187e-03    1.0236916406e+05
    3.6330535077e-03    1.0231903906e+05
    3.6521453876e-03    1.0228140625e+05
    3.6699753255e-03    1.0225037500e+05
    3.6875614896e-03    1.0222999219e+05
    3.7050142419e-03    1.0221339844e+05
    3.7224807311e-03    1.0219932031e+05
    3.7400643341e-03    1.0218388281e+05
    3.7577797193e-03    1.0216911719e+05
    3.7755726371e-03    1.0215668750e+05
    3.7933769636e-03    1.0214597656e+05
    3.8111612666e-03    1.0213983594e+05
    3.8289318327e-03    1.0213191406e+05
    3.8467168342e-03    1.0212562500e+05
    3.8645383902e-03    1.0211772656e+05
    3.8824023213e-03    1.0211078906e+05
    3.9002960548e-03    1.0209834375e+05
    3.9182156324e-03    1.0209067969e+05
    3.9361710660e-03    1.0207388281e+05
    3.9541716687e-03    1.0204761719e+05
    3.9733103476e-03    1.0203153906e+05
    3.9924201556e-03    1.0201941406e+05
    4.0104058571e-03    1.0200652344e+05
    4.0284004062e-03    1.0199028125e+05
    4.0464363992e-03    1.0198391406e+05
    4.0656095371e-03    1.0197287500e+05
    4.0847789496e-03    1.0196368750e+05
    4.1039343923e-03    1.0195534375e+05
    4.1219722480e-03    1.0194824219e+05
    4.1400394402e-03    1.0194640625e+05
    4.1591953486e-03    1.0194455469e+05
    4.1784178466e-03    1.0193396094e+05
    4.1976389475e-03    1.0193046094e+05
    4.2168586515e-03    1.0192246094e+05
    4.2360713705e-03    1.0191216406e+05
    4.2552771047e-03    1.0190039844e+05
    4.2744791135e-03    1.0188928906e+05
    4.2936825193e-03    1.0187775781e+05
    4.3128933758e-03    1.0186550781e+05
    4.3321144767e-03    1.0184652344e+05
    4.3513495475e-03    1.0183427344e+05
    4.3705995195e-03    1.0181828125e+05
    4.3898657896e-03    1.0180443750e+05
    4.4091497548e-03    1.0178477344e+05
    4.4284537435e-03    1.0175547656e+05
    4.4477786869e-03    1.0171950781e+05
    4.4671236537e-03    1.0167253906e+05
    4.4864914380e-03    1.0161952344e+05
    4.5058806427e-03    1.0155477344e+05
    4.5252908021e-03    1.0148352344e+05
    4.5447219163e-03    1.0140572656e+05
    4.5641721226e-03    1.0131891406e+05
    4.5836409554e-03    1.0121883594e+05
    4.6031279489e-03    1.0111160156e+05
    4.6226321720e-03    1.0099118750e+05
    4.6421540901e-03    1.0086456250e+05
    4.6616927721e-03    1.0073610156e+05
    4.6812482178e-03    1.0061019531e+05
    4.7008208930e-03    1.0049525000e+05
    4.7204112634e-03    1.0038941406e+05
    4.7400193289e-03    1.0030564844e+05
    4.7596455552e-03    1.0023265625e+05
    4.7792894766e-03    1.0018528906e+05
    4.7989510931e-03    1.0015518750e+05
    4.8186304048e-03    1.0014537500e+05
    4.8383255489e-03    1.0015422656e+05
    4.8580355942e-03    1.0018321875e+05
    4.8777610064e-03    1.0022996875e+05
    4.8975008540e-03    1.0028633594e+05
    4.9172551371e-03    1.0034743750e+05
    4.9370229244e-03    1.0041444531e+05
    4.9568060786e-03    1.0047575781e+05
    4.9766036682e-03    1.0052871094e+05
    4.9964170903e-03    1.0058190625e+05
    5.0162458792e-03    1.0061443750e+05
    5.0360900350e-03    1.0064696094e+05
    5.0559476949e-03    1.0066578906e+05
    5.0758207217e-03    1.0067521094e+05
    5.0957072526e-03    1.0067475781e+05
    5.1156077534e-03    1.0067521094e+05
    5.1355226897e-03    1.0066728906e+05
    5.1554525271e-03    1.0065221094e+05
    5.1753963344e-03    1.0063762500e+05
    5.1953555085e-03    1.0061583594e+05
    5.2153295837e-03    1.0059619531e+05
    5.2353194915e-03    1.0058158594e+05
    5.2553247660e-03    1.0057600781e+05
    5.2753463387e-03    1.0057250781e+05
    5.2953832783e-03    1.0057185156e+05
    5.3154369816e-03    1.0058166406e+05
    5.3355065174e-03    1.0058427344e+05
    5.3555918857e-03    1.0059242969e+05
    5.3756926209e-03    1.0059789844e+05
    5.3958082572e-03    1.0060933594e+05
    5.4159392603e-03    1.0062549219e+05
    5.4360851645e-03    1.0064197656e+05
    5.4562464356e-03    1.0065318750e+05
    5.4764230736e-03    1.0066239844e+05
    5.4966160096e-03    1.0066530469e+05
    5.5168238468e-03    1.0066928125e+05
    5.5370470509e-03    1.0066316406e+05
    5.5572865531e-03    1.0066480469e+05
    5.5775423534e-03    1.0066619531e+05
    5.5978130549e-03    1.0066932031e+05
    5.6181000546e-03    1.0067591406e+05
    5.6384028867e-03    1.0067796875e+05
    5.6587206200e-03    1.0067533594e+05
    5.6790532544e-03    1.0067732031e+05
    5.6994007900e-03    1.0067847656e+05
    5.7197632268e-03    1.0068583594e+05
    5.7401410304e-03    1.0068456250e+05
    5.7605337352e-03    1.0068852344e+05
    5.7809422724e-03    1.0069250781e+05
    5.8013652451e-03    1.0069375000e+05
    5.8218040504e-03    1.0069512500e+05
    5.8422577567e-03    1.0070328125e+05
    5.8627268299e-03    1.0070686719e+05
    5.8832112700e-03    1.0071984375e+05
    5.9037101455e-03    1.0072410156e+05
    5.9242248535e-03    1.0072717969e+05
    5.9447535314e-03    1.0073128906e+05
    5.9641525149e-03    1.0073607031e+05
    5.9830932878e-03    1.0074084375e+05
    6.0020405799e-03    1.0074522656e+05
    6.0210367665e-03    1.0074986719e+05
    6.0400799848e-03    1.0075464844e+05
    6.0591096990e-03    1.0076758594e+05
    6.0781282373e-03    1.0077289844e+05
    6.0972142965e-03    1.0078058594e+05
    6.1162756756e-03    1.0078952344e+05
    6.1353649944e-03    1.0079955469e+05
    6.1544459313e-03    1.0080500781e+05
    6.1734300107e-03    1.0080564844e+05
    6.1924448237e-03    1.0081064844e+05
    6.2115197070e-03    1.0081900781e+05
    6.2306127511e-03    1.0082441406e+05
    6.2497169711e-03    1.0083961719e+05
    6.2688281760e-03    1.0085553906e+05
    6.2879407778e-03    1.0086408594e+05
    6.3070552424e-03    1.0088103906e+05
    6.3261794858e-03    1.0088897656e+05
    6.3453060575e-03    1.0090688281e+05
    6.3644465990e-03    1.0092633594e+05
    6.3835908659e-03    1.0094739844e+05
    6.4027444459e-03    1.0096928906e+05
    6.4219115302e-03    1.0098385156e+05
    6.4410855994e-03    1.0100325000e+05
    6.4602680504e-03    1.0101700781e+05
    6.4794607460e-03    1.0103072656e+05
    6.4986641519e-03    1.0104278125e+05
    6.5178787336e-03    1.0106177344e+05
    6.5371058881e-03    1.0108028906e+05
    6.5563363023e-03    1.0111041406e+05
    6.5755699761e-03    1.0116227344e+05
    6.5948092379e-03    1.0126988281e+05
    6.6140629351e-03    1.0148652344e+05
    6.6333152354e-03    1.0193964844e+05
    6.6525745206e-03    1.0285819531e+05
    6.6718445159e-03    1.0463939844e+05
    6.6911154427e-03    1.0786128125e+05
    6.7104012705e-03    1.1315539844e+05
    6.7296870984e-03    1.2094333594e+05
    6.7489854991e-03    1.3099046094e+05
    6.7682852969e-03    1.4219673438e+05
    6.7875892855e-03    1.5283510938e+05
    6.8069072440e-03    1.6122743750e+05
    6.8262196146e-03    1.6649818750e+05
    6.8455408327e-03    1.6874645312e+05
    6.8648783490e-03    1.6873550000e+05
    6.8842126057e-03    1.6742342188e+05
    6.9035501219e-03    1.6565470312e+05
    6.9228983484e-03    1.6400954688e+05
    6.9422605447e-03    1.6264179688e+05
    6.9616222754e-03    1.6147534375e+05
    6.9809844717e-03    1.6032407812e+05
    7.0003494620e-03    1.5903175000e+05
    7.0197195746e-03    1.5753098438e+05
    7.0390999317e-03    1.5582551562e+05
    7.0584909990e-03    1.5398426562e+05
    7.0778946392e-03    1.5209768750e+05
    7.0973108523e-03    1.5025310938e+05
    7.1167377755e-03    1.4850692188e+05
    7.1361698210e-03    1.4687404688e+05
    7.1556069888e-03    1.4534342188e+05
    7.1750483476e-03    1.4389695312e+05
    7.1944966912e-03    1.4248570312e+05
    7.2139529511e-03    1.4110382812e+05
    7.2334166616e-03    1.3975098438e+05
    7.2528840974e-03    1.3843600000e+05
    7.2723543271e-03    1.3717370312e+05
    7.2918278165e-03    1.3597909375e+05
    7.3113050312e-03    1.3486206250e+05
    7.3307845742e-03    1.3381976562e+05
    7.3502692394e-03    1.3285545312e+05
    7.3697618209e-03    1.3195115625e+05
    7.3892641813e-03    1.3110704688e+05
    7.4087800458e-03    1.3031033594e+05
    7.4282912537e-03    1.2955430469e+05
    7.4477996677e-03    1.2884003125e+05
    7.4673094787e-03    1.2815625000e+05
    7.4868267402e-03    1.2751078125e+05
    7.5063589029e-03    1.2690115625e+05
    7.5258887373e-03    1.2632564844e+05
    7.5454111211e-03    1.2578441406e+05
    7.5649353676e-03    1.2527514844e+05
    7.5844703242e-03    1.2478439844e+05
    7.6040057465e-03    1.2431425781e+05
    7.6235276647e-03    1.2386155469e+05
    7.6430505142e-03    1.2343008594e+05
    7.6625877991e-03    1.2301997656e+05
    7.6821087860e-03    1.2263228906e+05
    7.7016241848e-03    1.2227202344e+05
    7.7211544849e-03    1.2193642969e+05
    7.7406810597e-03    1.2161790625e+05
    7.7602043748e-03    1.2132753906e+05
    7.7797495760e-03    1.2104788281e+05
    7.7992938459e-03    1.2077602344e+05
    7.8188432381e-03    1.2050665625e+05
    7.8384252265e-03    1.2024659375e+05
    7.8580006957e-03    1.1998596094e+05
    7.8775910661e-03    1.1972497656e+05
    7.8972103074e-03    1.1945739844e+05
    7.9168286175e-03    1.1919572656e+05
    7.9364804551e-03    1.1893760156e+05
    7.9561360180e-03    1.1867803125e+05
    7.9758102074e-03    1.1841953125e+05
    7.9955114052e-03    1.1816834375e+05
    8.0152126029e-03    1.1792321094e+05
    8.0349491909e-03    1.1767986719e+05
    8.0546662211e-03    1.1744364844e+05
    8.0743944272e-03    1.1721718750e+05
    8.0941170454e-03    1.1700760156e+05
    8.1138620153e-03    1.1679735156e+05
    8.1336386502e-03    1.1659874219e+05
    8.1534720957e-03    1.1641169531e+05
    8.1733558327e-03    1.1622799219e+05
    8.1932730973e-03    1.1606090625e+05
    8.2132071257e-03    1.1590560156e+05
    8.2330890000e-03    1.1576277344e+05
    8.2529615611e-03    1.1562807031e+05
    8.2727763802e-03    1.1549963281e+05
    8.2926023751e-03    1.1537372656e+05
    8.3124246448e-03    1.1525546875e+05
    8.3322748542e-03    1.1514325781e+05
    8.3521194756e-03    1.1503721094e+05
    8.3719678223e-03    1.1493622656e+05
    8.3917891607e-03    1.1483555469e+05
    8.4116021171e-03    1.1473584375e+05
    8.4314141423e-03    1.1464115625e+05
    8.4512168542e-03    1.1453343750e+05
    8.4710381925e-03    1.1443311719e+05
    8.4908353165e-03    1.1433006250e+05
    8.5106678307e-03    1.1422150781e+05
    8.5304882377e-03    1.1411499219e+05
    8.5503393784e-03    1.1400175781e+05
    8.5699046031e-03    1.1387571094e+05
    8.5892248899e-03    1.1375121094e+05
    8.6083402857e-03    1.1362089844e+05
    8.6272666231e-03    1.1348541406e+05
    8.6460309103e-03    1.1335533594e+05
    8.6646731943e-03    1.1322505469e+05
    8.6832325906e-03    1.1309283594e+05
    8.7017398328e-03    1.1296427344e+05
    8.7202098221e-03    1.1283941406e+05
    8.7386453524e-03    1.1272580469e+05
    8.7570473552e-03    1.1261460156e+05
    8.7753897533e-03    1.1251314844e+05
    8.7936492637e-03    1.1242457031e+05
    8.8118780404e-03    1.1234460156e+05
    8.8300397620e-03    1.1228027344e+05
    8.8481390849e-03    1.1222035156e+05
    8.8662039489e-03    1.1217189844e+05
    8.8842641562e-03    1.1212561719e+05
    8.9023411274e-03    1.1208417969e+05
    8.9204348624e-03    1.1205032031e+05
    8.9385388419e-03    1.1201646094e+05
    8.9566456154e-03    1.1197587500e+05
    8.9747514576e-03    1.1193964844e+05
    8.9928600937e-03    1.1189547656e+05
    9.0109808370e-03    1.1184581250e+05
    9.0291155502e-03    1.1179382031e+05
    9.0472688898e-03    1.1173568750e+05
    9.0654399246e-03    1.1166764844e+05
    9.0836230665e-03    1.1160021094e+05
    9.1018192470e-03    1.1151560156e+05
    9.1200266033e-03    1.1143407031e+05
    9.1382460669e-03    1.1134828906e+05
    9.1564757749e-03    1.1125878125e+05
    9.1747231781e-03    1.1117461719e+05
    9.1929892078e-03    1.1109584375e+05
    9.2112747952e-03    1.1101266406e+05
    9.2295790091e-03    1.1093256250e+05
    9.2479009181e-03    1.1085585156e+05
    9.2662386596e-03    1.1077856250e+05
    9.2845931649e-03    1.1070982031e+05
    9.3029672280e-03    1.1063960156e+05
    9.3213599175e-03    1.1057339844e+05
    9.3397712335e-03    1.1050721094e+05
    9.3582011759e-03    1.1044452344e+05
    9.3766497448e-03    1.1038697656e+05
    9.3951150775e-03    1.1032834375e+05
    9.4135999680e-03    1.1026841406e+05
    9.4321016222e-03    1.1020518750e+05
    9.4506228343e-03    1.1013959375e+05
    9.4691645354e-03    1.1008082031e+05
    9.4877239317e-03    1.1002044531e+05
    9.5063010231e-03    1.0996283594e+05
    9.5248948783e-03    1.0991285156e+05
    9.5435054973e-03    1.0986068750e+05
    9.5621328801e-03    1.0980888281e+05
    9.5807760954e-03    1.0975393750e+05
    9.5994332805e-03    1.0970221094e+05
    9.6181081608e-03    1.0965246875e+05
    9.6367979422e-03    1.0960744531e+05
    9.6555035561e-03    1.0956621094e+05
    9.6742231399e-03    1.0952781250e+05
    9.6929576248e-03    1.0949325781e+05
    9.7117051482e-03    1.0945433594e+05
    9.7304685041e-03    1.0941321094e+05
    9.7492448986e-03    1.0937339844e+05
    9.7680361941e-03    1.0933259375e+05
    9.7868405282e-03    1.0929097656e+05
    9.8056588322e-03    1.0924755469e+05
    9.8244920373e-03    1.0919790625e+05
    9.8433364183e-03    1.0914978125e+05
    9.8621929064e-03    1.0909109375e+05
    9.8810633644e-03    1.0903299219e+05
    9.8999459296e-03    1.0896940625e+05
    9.9188406020e-03    1.0889803906e+05
    9.9377483130e-03    1.0882958594e+05
    9.9566690624e-03    1.0875875000e+05
    9.9756028503e-03    1.0868758594e+05
    9.9945487455e-03    1.0861531250e+05
    1.0013507679e-02    1.0854094531e+05
    1.0032479651e-02    1.0846246875e+05
    1.0051463731e-02    1.0838822656e+05
    1.0070459917e-02    1.0832037500e+05
    1.0089469142e-02    1.0825811719e+05
    1.0108492337e-02    1.0819700781e+05
    1.0127528571e-02    1.0814150781e+05
    1.0146577843e-02    1.0808830469e+05
    1.0165639222e-02    1.0804064844e+05
    1.0184712708e-02    1.0799350781e+05
    1.0203798302e-02    1.0794271094e+05
    1.0222896002e-02    1.0789364844e+05
    1.0242006741e-02    1.0785160156e+05
    1.0261129588e-02    1.0780766406e+05
    1.0280264542e-02    1.0776303125e+05
    1.0299413465e-02    1.0771950781e+05
    1.0318575427e-02    1.0767553906e+05
    1.0337748565e-02    1.0763944531e+05
    1.0356934741e-02    1.0761096094e+05
    1.0376133956e-02    1.0758283594e+05
    1.0395346209e-02    1.0755244531e+05
    1.0414571501e-02    1.0751712500e+05
    1.0433809832e-02    1.0748171094e+05
    1.0453061201e-02    1.0743766406e+05
    1.0472324677e-02    1.0739987500e+05
    1.0491601191e-02    1.0735437500e+05
    1.0510892607e-02    1.0731190625e+05
    1.0530196130e-02    1.0726969531e+05
    1.0549513623e-02    1.0722485156e+05
    1.0568842292e-02    1.0717046094e+05
    1.0588183999e-02    1.0710339844e+05
    1.0607538745e-02    1.0703562500e+05
    1.0626907460e-02    1.0695452344e+05
    1.0646289214e-02    1.0687165625e+05
    1.0665684007e-02    1.0677922656e+05
    1.0685092770e-02    1.0667721094e+05
    1.0704516433e-02    1.0656517969e+05
    1.0723951273e-02    1.0644177344e+05
    1.0743400082e-02    1.0631249219e+05
    1.0762862861e-02    1.0617835156e+05
    1.0782338679e-02    1.0603947656e+05
    1.0801829398e-02    1.0589546094e+05
    1.0821334086e-02    1.0574880469e+05
    1.0840852745e-02    1.0559975781e+05
    1.0860386305e-02    1.0544946094e+05
    1.0879932903e-02    1.0529703906e+05
    1.0899493471e-02    1.0514256250e+05
    1.0919069871e-02    1.0498355469e+05
    1.0938662104e-02    1.0483496094e+05
    1.0958270170e-02    1.0468127344e+05
    1.0977892205e-02    1.0453750000e+05
    1.0997531936e-02    1.0439687500e+05
    1.1017187499e-02    1.0425732031e+05
    1.1036860757e-02    1.0412822656e+05
    1.1056551710e-02    1.0401228906e+05
    1.1076259427e-02    1.0391094531e+05
    1.1095987633e-02    1.0383147656e+05
    1.1115733534e-02    1.0376900000e+05
    1.1135498993e-02    1.0373458594e+05
    1.1155283079e-02    1.0371652344e+05
    1.1175086722e-02    1.0372781250e+05
    1.1194912717e-02    1.0374544531e+05
    1.1214758269e-02    1.0377280469e+05
    1.1234625243e-02    1.0380316406e+05
    1.1254511774e-02    1.0383585156e+05
    1.1274418794e-02    1.0386085156e+05
    1.1294347234e-02    1.0388053906e+05
    1.1314296164e-02    1.0389414844e+05
    1.1334266514e-02    1.0389935156e+05
    1.1354257353e-02    1.0390169531e+05
    1.1374268681e-02    1.0389877344e+05
    1.1394302361e-02    1.0388591406e+05
    1.1414355598e-02    1.0386808594e+05
    1.1434430256e-02    1.0385283594e+05
    1.1454525404e-02    1.0383197656e+05
    1.1474640109e-02    1.0380887500e+05
    1.1494777165e-02    1.0378941406e+05
    1.1514934711e-02    1.0376961719e+05
    1.1535113677e-02    1.0374971094e+05
    1.1555313133e-02    1.0372278906e+05
    1.1575534008e-02    1.0370234375e+05
    1.1595774442e-02    1.0367472656e+05
    1.1616035365e-02    1.0365167969e+05
    1.1636316776e-02    1.0361952344e+05
    1.1656619608e-02    1.0358935156e+05
    1.1676942930e-02    1.0355421094e+05
    1.1697287671e-02    1.0351778906e+05
    1.1717652902e-02    1.0347488281e+05
    1.1738038622e-02    1.0343467969e+05
    1.1758443899e-02    1.0339374219e+05
    1.1778870597e-02    1.0335478906e+05
    1.1799318716e-02    1.0331483594e+05
    1.1819788255e-02    1.0327878906e+05
    1.1840280145e-02    1.0324917969e+05
    1.1860790662e-02    1.0322260156e+05
    1.1881321669e-02    1.0319311719e+05
    1.1901874095e-02    1.0316731250e+05
    1.1922447011e-02    1.0313414844e+05
    1.1943042278e-02    1.0310313281e+05
    1.1963658035e-02    1.0307403125e+05
    1.1984295212e-02    1.0304458594e+05
    1.2004952878e-02    1.0301759375e+05
    1.2025631964e-02    1.0298732031e+05
    1.2046331540e-02    1.0294835156e+05
    1.2067052536e-02    1.0291397656e+05
    1.2087795883e-02    1.0287322656e+05
    1.2108558789e-02    1.0283077344e+05
    1.2129344046e-02    1.0279777344e+05
    1.2150149792e-02    1.0276306250e+05
    1.2170976959e-02    1.0273172656e+05
    1.2191825546e-02    1.0270242969e+05
    1.2212695554e-02    1.0268402344e+05
    1.2233586982e-02    1.0267625000e+05
    1.2254500762e-02    1.0268764844e+05
    1.2275436893e-02    1.0273912500e+05
    1.2296394445e-02    1.0282985156e+05
    1.2317374349e-02    1.0298035156e+05
    1.2338375673e-02    1.0320461719e+05
    1.2359398417e-02    1.0352881250e+05
    1.2380442582e-02    1.0397321875e+05
    1.2401508167e-02    1.0456200000e+05
    1.2422595173e-02    1.0530296094e+05
    1.2443703599e-02    1.0619934375e+05
    1.2464834377e-02    1.0722658594e+05
    1.2485986575e-02    1.0835397656e+05
    1.2507158332e-02    1.0950194531e+05
    1.2528351508e-02    1.1059909375e+05
    1.2549565174e-02    1.1155610156e+05
    1.2570801191e-02    1.1230328906e+05
    1.2592058629e-02    1.1278435156e+05
    1.2613337487e-02    1.1299052344e+05
    1.2634636834e-02    1.1292716406e+05
    1.2655957602e-02    1.1261706250e+05
    1.2677297927e-02    1.1211182031e+05
    1.2698660605e-02    1.1146671875e+05
    1.2720043771e-02    1.1073775000e+05
    1.2741449289e-02    1.0998910156e+05
    1.2762876227e-02    1.0926263281e+05
    1.2784325518e-02    1.0860841406e+05
    1.2805794366e-02    1.0805825781e+05
    1.2827285565e-02    1.0761685156e+05
    1.2848797254e-02    1.0726211719e+05
    1.2870330364e-02    1.0696314844e+05
    1.2891885825e-02    1.0668115625e+05
    1.2913462706e-02    1.0638450000e+05
    1.2935061008e-02    1.0603669531e+05
    1.2956679799e-02    1.0563628906e+05
    1.2978320010e-02    1.0517642969e+05
    1.2999981642e-02    1.0467053906e+05
    1.3021663763e-02    1.0414161719e+05
    1.3043368235e-02    1.0360990625e+05
    1.3065092266e-02    1.0309511719e+05
    1.3086837716e-02    1.0262541406e+05
    1.3108605519e-02    1.0221930469e+05
    1.3130392879e-02    1.0188066406e+05
    1.3152201660e-02    1.0161025000e+05
    1.3174032792e-02    1.0140038281e+05
    1.3195885345e-02    1.0122610156e+05
    1.3217759319e-02    1.0108897656e+05
    1.3239653781e-02    1.0097214844e+05
    1.3261569664e-02    1.0088456250e+05
    1.3283506967e-02    1.0081418750e+05
    1.3305463828e-02    1.0075628906e+05
    1.3327440247e-02    1.0070418750e+05
    1.3349435292e-02    1.0066127344e+05
    1.3371448033e-02    1.0062428125e+05
    1.3393475674e-02    1.0060071875e+05
    1.3415516354e-02    1.0059046094e+05
    1.3437564485e-02    1.0059563281e+05
    1.3459613547e-02    1.0061253906e+05
    1.3481658883e-02    1.0063061719e+05
    1.3503690250e-02    1.0064569531e+05
    1.3525702059e-02    1.0065246875e+05
    1.3547683135e-02    1.0065178906e+05
    1.3569628820e-02    1.0063977344e+05
    1.3591531664e-02    1.0062152344e+05
    1.3613392599e-02    1.0058981250e+05
    1.3635210693e-02    1.0055756250e+05
    1.3656994328e-02    1.0053778906e+05
    1.3678749092e-02    1.0052911719e+05
    1.3700488023e-02    1.0054411719e+05
    1.3722228818e-02    1.0058460156e+05
    1.3743981719e-02    1.0064902344e+05
    1.3765762560e-02    1.0073309375e+05
    1.3787578791e-02    1.0082302344e+05
    1.3809437864e-02    1.0091153906e+05
    1.3831341639e-02    1.0099397656e+05
    1.3853288256e-02    1.0105699219e+05
    1.3875273056e-02    1.0109864844e+05
    1.3897285797e-02    1.0110889844e+05
    1.3919321820e-02    1.0109942969e+05
    1.3941374607e-02    1.0106482031e+05
    1.3963440433e-02    1.0102117969e+05
    1.3985517435e-02    1.0096908594e+05
    1.4007603750e-02    1.0091322656e+05
    1.4029704034e-02    1.0086065625e+05
    1.4051820152e-02    1.0081103906e+05
    1.4073957689e-02    1.0076185156e+05
    1.4096121304e-02    1.0071278906e+05
    1.4118315652e-02    1.0065197656e+05
    1.4140545391e-02    1.0058666406e+05
    1.4162814245e-02    1.0051532031e+05
    1.4185124077e-02    1.0043521094e+05
    1.4207473956e-02    1.0033924219e+05
    1.4229862019e-02    1.0024739844e+05
    1.4252286404e-02    1.0015253125e+05
    1.4274741523e-02    1.0006938281e+05
    1.4297228307e-02    9.9994664062e+04
    1.4319745824e-02    9.9939148438e+04
    1.4342290349e-02    9.9904726562e+04
    1.4364863746e-02    9.9880039062e+04
    1.4387467876e-02    9.9879375000e+04
    1.4410103671e-02    9.9893531250e+04
    1.4432771131e-02    9.9927898438e+04
    1.4455472119e-02    9.9981093750e+04
    1.4478209428e-02    1.0004721875e+05
    1.4500979334e-02    1.0013127344e+05
    1.4523783699e-02    1.0022421094e+05
    1.4546621591e-02    1.0031222656e+05
    1.4569494873e-02    1.0041237500e+05
    1.4592399821e-02    1.0050327344e+05
    1.4615339227e-02    1.0060386719e+05
    1.4638305642e-02    1.0070583594e+05
    1.4661304653e-02    1.0079508594e+05
    1.4684336260e-02    1.0089183594e+05
    1.4707398601e-02    1.0097871875e+05
    1.4730494469e-02    1.0105310156e+05
    1.4753622934e-02    1.0111614844e+05
    1.4776783995e-02    1.0116990625e+05
    1.4799979515e-02    1.0122191406e+05
    1.4823205769e-02    1.0125952344e+05
    1.4846466482e-02    1.0130010156e+05
    1.4869757928e-02    1.0133084375e+05
    1.4893081971e-02    1.0134674219e+05
    1.4916437678e-02    1.0135753125e+05
    1.4939822257e-02    1.0136830469e+05
    1.4963239431e-02    1.0136896094e+05
    1.4986685477e-02    1.0136652344e+05
    1.5010161325e-02    1.0135747656e+05
    1.5033668838e-02    1.0133053906e+05
    1.5057205223e-02    1.0129757031e+05
    1.5080772340e-02    1.0125416406e+05
    1.5104367398e-02    1.0120110156e+05
    1.5127992257e-02    1.0113977344e+05
    1.5151646920e-02    1.0106828906e+05
    1.5175330453e-02    1.0099136719e+05
    1.5199041925e-02    1.0090575000e+05
    1.5222782269e-02    1.0081971094e+05
    1.5246548690e-02    1.0073987500e+05
    1.5270343982e-02    1.0065789844e+05
    1.5294168144e-02    1.0058180469e+05
    1.5318016522e-02    1.0051683594e+05
    1.5341891907e-02    1.0045025000e+05
    1.5365792438e-02    1.0038719531e+05
    1.5389721841e-02    1.0033816406e+05
    1.5413676389e-02    1.0028781250e+05
    1.5437657945e-02    1.0025427344e+05
    1.5461664647e-02    1.0021418750e+05
    1.5485695563e-02    1.0018383594e+05
    1.5509752557e-02    1.0015436719e+05
    1.5533835627e-02    1.0012271094e+05
    1.5557944775e-02    1.0008855469e+05
    1.5582079068e-02    1.0006060156e+05
    1.5606240369e-02    1.0003233594e+05
    1.5630424023e-02    9.9999593750e+04
    1.5654634684e-02    9.9970882812e+04
    1.5678871423e-02    9.9936398438e+04
    1.5703132376e-02    9.9902343750e+04
    1.5727419406e-02    9.9865976562e+04
    1.5751728788e-02    9.9838117188e+04
    1.5776060522e-02    9.9805914062e+04
    1.5800418332e-02    9.9770476562e+04
    1.5824800357e-02    9.9741085938e+04
    1.5849204734e-02    9.9713039062e+04
    1.5873633325e-02    9.9690335938e+04
    1.5898084268e-02    9.9664664062e+04
    1.5922557563e-02    9.9639773438e+04
    1.5947058797e-02    9.9621968750e+04
    1.5971582383e-02    9.9609968750e+04
    1.5996130183e-02    9.9604906250e+04
    1.6020702198e-02    9.9604031250e+04
    1.6045298427e-02    9.9613414062e+04
    1.6069920734e-02    9.9623664062e+04
    1.6094569117e-02    9.9636414062e+04
    1.6119243577e-02    9.9652820312e+04
    1.6143942252e-02    9.9671781250e+04
    1.6168667004e-02    9.9693250000e+04
    1.6193419695e-02    9.9729398438e+04
    1.6218200326e-02    9.9764492188e+04
    1.6243007034e-02    9.9813835938e+04
    1.6267839819e-02    9.9863914062e+04
    1.6292702407e-02    9.9916726562e+04
    1.6317596659e-02    9.9977195312e+04
    1.6342513263e-02    1.0004096094e+05
    1.6367461532e-02    1.0010541406e+05
    1.6392435879e-02    1.0017161719e+05
    1.6417443752e-02    1.0023892969e+05
    1.6442479566e-02    1.0030566406e+05
    1.6467543319e-02    1.0036811719e+05
    1.6492636874e-02    1.0042900781e+05
    1.6517756507e-02    1.0048997656e+05
    1.6542907804e-02    1.0054678906e+05
    1.6568088904e-02    1.0060533594e+05
    1.6593271866e-02    1.0065847656e+05
    1.6618426889e-02    1.0070696875e+05
    1.6643559560e-02    1.0075493750e+05
    1.6668669879e-02    1.0079508594e+05
    1.6693757847e-02    1.0083227344e+05
    1.6718825325e-02    1.0086906250e+05
    1.6743874177e-02    1.0089102344e+05
    1.6768900678e-02    1.0091883594e+05
    1.6793908551e-02    1.0094513281e+05
    1.6818899661e-02    1.0096396094e+05
    1.6843874007e-02    1.0097821094e+05
    1.6868829727e-02    1.0099369531e+05
    1.6893770546e-02    1.0100787500e+05
    1.6918692738e-02    1.0102453906e+05
    1.6943598166e-02    1.0103282031e+05
    1.6968490556e-02    1.0104794531e+05
    1.6993366182e-02    1.0106462500e+05
    1.7018226907e-02    1.0107884375e+05
    1.7043072730e-02    1.0109750000e+05
    1.7067901790e-02    1.0111631250e+05
    1.7092714086e-02    1.0113555469e+05
    1.7117511481e-02    1.0115953125e+05
    1.7142292112e-02    1.0119318750e+05
    1.7167057842e-02    1.0123515625e+05
    1.7191808671e-02    1.0127756250e+05
    1.7216544598e-02    1.0132200781e+05
    1.7241263762e-02    1.0136502344e+05
    1.7265968025e-02    1.0140888281e+05
    1.7290659249e-02    1.0146235156e+05
    1.7315333709e-02    1.0150931250e+05
    1.7339993268e-02    1.0155608594e+05
    1.7364639789e-02    1.0160871094e+05
    1.7389267683e-02    1.0165900000e+05
    1.7413880676e-02    1.0170037500e+05
    1.7438478768e-02    1.0174344531e+05
    1.7463061959e-02    1.0177882031e+05
    1.7487626523e-02    1.0181489844e+05
    1.7512176186e-02    1.0184939844e+05
    1.7536709085e-02    1.0188358594e+05
    1.7561223358e-02    1.0192399219e+05
    1.7585720867e-02    1.0195825000e+05
    1.7610201612e-02    1.0198841406e+05
    1.7634663731e-02    1.0201756250e+05
    1.7659107223e-02    1.0204869531e+05
    1.7683532089e-02    1.0207305469e+05
    1.7707940191e-02    1.0209592969e+05
    1.7732329667e-02    1.0212711719e+05
    1.7756698653e-02    1.0214300781e+05
    1.7781050876e-02    1.0216453906e+05
    1.7805384472e-02    1.0217667969e+05
    1.7829699442e-02    1.0219488281e+05
    1.7853999510e-02    1.0220686719e+05
    1.7878280953e-02    1.0221843750e+05
    1.7902545631e-02    1.0223803125e+05
    1.7926793545e-02    1.0225764844e+05
    1.7951028422e-02    1.0228144531e+05
    1.7975246534e-02    1.0230722656e+05
    1.7999447882e-02    1.0232871094e+05
    1.8023636192e-02    1.0235457031e+05
    1.8047811463e-02    1.0238303906e+05
    1.8071975559e-02    1.0241641406e+05
    1.8096126616e-02    1.0245678125e+05
    1.8120266497e-02    1.0250750781e+05
    1.8144397065e-02    1.0256021094e+05
    1.8168520182e-02    1.0261958594e+05
    1.8192630261e-02    1.0269021875e+05
    1.8216732889e-02    1.0277114844e+05
    1.8240824342e-02    1.0285966406e+05
    1.8264908344e-02    1.0296253906e+05
    1.8288983032e-02    1.0307434375e+05
    1.8313048407e-02    1.0318884375e+05
    1.8337102607e-02    1.0331315625e+05
    1.8361147493e-02    1.0342769531e+05
    1.8385183066e-02    1.0353541406e+05
    1.8409207463e-02    1.0361966406e+05
    1.8433224410e-02    1.0368580469e+05
    1.8457230181e-02    1.0371984375e+05
    1.8481226638e-02    1.0372359375e+05
    1.8505210057e-02    1.0368844531e+05
    1.8529184163e-02    1.0362233594e+05
    1.8553148955e-02    1.0350912500e+05
    1.8577100709e-02    1.0336674219e+05
    1.8601041287e-02    1.0318096094e+05
    1.8624972552e-02    1.0296181250e+05
    1.8648892641e-02    1.0271055469e+05
    1.8672801554e-02    1.0243296094e+05
    1.8696699291e-02    1.0214756250e+05
    1.8720587716e-02    1.0186577344e+05
    1.8744463101e-02    1.0160222656e+05
    1.8768329173e-02    1.0136352344e+05
    1.8792184070e-02    1.0115078906e+05
    1.8816027790e-02    1.0097107031e+05
    1.8839860335e-02    1.0082605469e+05
    1.8863683566e-02    1.0071928906e+05
    1.8887493759e-02    1.0064789844e+05
    1.8911294639e-02    1.0060994531e+05
    1.8935086206e-02    1.0059897656e+05
    1.8958866596e-02    1.0060703906e+05
    1.8982635811e-02    1.0062141406e+05
    1.9006397575e-02    1.0064311719e+05
    1.9030146301e-02    1.0067474219e+05
    1.9053885713e-02    1.0071364844e+05
    1.9077615812e-02    1.0075835156e+05
    1.9101334736e-02    1.0081402344e+05
    1.9125042483e-02    1.0086609375e+05
    1.9148740917e-02    1.0091637500e+05
    1.9172428176e-02    1.0096687500e+05
    1.9196104258e-02    1.0102041406e+05
    1.9219771028e-02    1.0106783594e+05
    1.9243424758e-02    1.0112072656e+05
    1.9267069176e-02    1.0116446094e+05
    1.9290700555e-02    1.0121328906e+05
    1.9314322621e-02    1.0125608594e+05
    1.9337931648e-02    1.0129716406e+05
    1.9361529499e-02    1.0133713281e+05
    1.9385114312e-02    1.0137758594e+05
    1.9408687949e-02    1.0141749219e+05
    1.9432250410e-02    1.0146519531e+05
    1.9455801696e-02    1.0151871094e+05
    1.9479339942e-02    1.0157719531e+05
    1.9502865151e-02    1.0164285156e+05
    1.9526379183e-02    1.0170618750e+05
    1.9549878314e-02    1.0177458594e+05
    1.9573366269e-02    1.0184221094e+05
    1.9596841186e-02    1.0190803125e+05
    1.9620303065e-02    1.0196693750e+05
    1.9643751904e-02    1.0201628906e+05
    1.9667187706e-02    1.0206228125e+05
    1.9690606743e-02    1.0210071875e+05
    1.9714014605e-02    1.0213268750e+05
    1.9737409428e-02    1.0216477344e+05
    1.9760791212e-02    1.0219109375e+05
    1.9784159958e-02    1.0221512500e+05
    1.9807513803e-02    1.0223353125e+05
    1.9830854610e-02    1.0225912500e+05
    1.9854182377e-02    1.0227378125e+05
    1.9877497107e-02    1.0229635156e+05
    1.9900798798e-02    1.0230942969e+05
    1.9924087450e-02    1.0231964844e+05
    1.9947361201e-02    1.0232889844e+05
    1.9970623776e-02    1.0233578125e+05
    1.9993871450e-02    1.0234138281e+05
    2.0017107949e-02    1.0235537500e+05
    2.0040329546e-02    1.0235975781e+05
    2.0063538104e-02    1.0236377344e+05
    2.0086731762e-02    1.0236419531e+05
    2.0109914243e-02    1.0236539844e+05
    2.0133081824e-02    1.0236924219e+05
    2.0156236365e-02    1.0237258594e+05
    2.0179376006e-02    1.0237132031e+05
    2.0202504471e-02    1.0236902344e+05
    2.0225618035e-02    1.0236930469e+05
    2.0248720422e-02    1.0235855469e+05
    2.0271807909e-02    1.0235431250e+05
    2.0294882357e-02    1.0234693750e+05
    2.0317947492e-02    1.0233643750e+05
    2.0340997726e-02    1.0233234375e+05
    2.0364036784e-02    1.0232100781e+05
    2.0387060940e-02    1.0230862500e+05
    2.0410073921e-02    1.0229557031e+05
    2.0433073863e-02    1.0227571094e+05
    2.0456060767e-02    1.0225627344e+05
    2.0479036495e-02    1.0224444531e+05
    2.0501999184e-02    1.0222415625e+05
    2.0524948835e-02    1.0220740625e+05
    2.0547885448e-02    1.0219555469e+05
    2.0570809022e-02    1.0218394531e+05
    2.0593719557e-02    1.0216346094e+05
    2.0616617054e-02    1.0215141406e+05
    2.0639499649e-02    1.0213078125e+05
    2.0662369207e-02    1.0211740625e+05
    2.0685223863e-02    1.0210446875e+05
    2.0708063617e-02    1.0209214844e+05
    2.0730890334e-02    1.0208083594e+05
    2.0753700286e-02    1.0206874219e+05
    2.0776495337e-02    1.0205585156e+05
    2.0799275488e-02    1.0203822656e+05
    2.0822042599e-02    1.0203094531e+05
    2.0844791085e-02    1.0202010156e+05
    2.0867524669e-02    1.0200422656e+05
    2.0890241489e-02    1.0198714844e+05
    2.0912945271e-02    1.0197638281e+05
    2.0935632288e-02    1.0197458594e+05
    2.0958306268e-02    1.0196266406e+05
    2.0980965346e-02    1.0195181250e+05
    2.1003607661e-02    1.0193952344e+05
    2.1026238799e-02    1.0191878125e+05
    2.1048855036e-02    1.0190744531e+05
    2.1071458235e-02    1.0189322656e+05
    2.1094048396e-02    1.0187747656e+05
    2.1116625518e-02    1.0186983594e+05
    2.1139191464e-02    1.0185759375e+05
    2.1161744371e-02    1.0184533594e+05
    2.1184286103e-02    1.0183375000e+05
    2.1206818521e-02    1.0182164844e+05
    2.1229337901e-02    1.0180977344e+05
    2.1251846105e-02    1.0180435156e+05
    2.1274344996e-02    1.0178583594e+05
    2.1296832711e-02    1.0177478906e+05
    2.1319312975e-02    1.0176397656e+05
    2.1341778338e-02    1.0175403906e+05
    2.1364232525e-02    1.0175197656e+05
    2.1386675537e-02    1.0174574219e+05
    2.1409107372e-02    1.0173915625e+05
    2.1431528032e-02    1.0173012500e+05
    2.1453931928e-02    1.0172125000e+05
    2.1476324648e-02    1.0171271094e+05
    2.1498700604e-02    1.0170677344e+05
    2.1521063522e-02    1.0170541406e+05
    2.1543409675e-02    1.0170843750e+05
    2.1565740928e-02    1.0171303906e+05
    2.1588053554e-02    1.0170810156e+05
    2.1610351279e-02    1.0170708594e+05
    2.1632634103e-02    1.0170228906e+05
    2.1654898301e-02    1.0170235156e+05
    2.1677147597e-02    1.0169775000e+05
    2.1699378267e-02    1.0169825000e+05
    2.1721594036e-02    1.0170078125e+05
    2.1743793041e-02    1.0169797656e+05
    2.1765975282e-02    1.0169703906e+05
    2.1788140759e-02    1.0169627344e+05
    2.1810289472e-02    1.0169388281e+05
    2.1832419559e-02    1.0169330469e+05
    2.1854531020e-02    1.0169360156e+05
    2.1876627579e-02    1.0169197656e+05
    2.1898705512e-02    1.0169053125e+05
    2.1920768544e-02    1.0168814844e+05
    2.1942811087e-02    1.0169307031e+05
    2.1964838728e-02    1.0169182031e+05
    2.1986849606e-02    1.0169555469e+05
    2.2008845583e-02    1.0169005469e+05
    2.2030822933e-02    1.0168466406e+05
    2.2052785382e-02    1.0169365625e+05
    2.2074732929e-02    1.0168792969e+05
    2.2096665576e-02    1.0168233594e+05
    2.2118583322e-02    1.0168183594e+05
    2.2140489891e-02    1.0168135156e+05
    2.2162377834e-02    1.0168041406e+05
    2.2184254602e-02    1.0167841406e+05
    2.2206118330e-02    1.0167746094e+05
    2.2227969021e-02    1.0167525781e+05
    2.2249806672e-02    1.0167763281e+05
    2.2271629423e-02    1.0167199219e+05
    2.2293440998e-02    1.0166986719e+05
    2.2315241396e-02    1.0166687500e+05
    2.2337028757e-02    1.0166274219e+05
    2.2358803079e-02    1.0165166406e+05
    2.2380566224e-02    1.0164430469e+05
    2.2402318195e-02    1.0163833594e+05
    2.2424057126e-02    1.0163052344e+05
    2.2445784882e-02    1.0162146094e+05
    2.2467501462e-02    1.0160927344e+05
    2.2489206865e-02    1.0159857031e+05
    2.2510899231e-02    1.0158074219e+05
    2.2532582283e-02    1.0156100000e+05
    2.2554252297e-02    1.0153928906e+05
    2.2575911134e-02    1.0151653125e+05
    2.2597560659e-02    1.0149885156e+05
    2.2619199008e-02    1.0148060156e+05
    2.2640828043e-02    1.0147078906e+05
    2.2662445903e-02    1.0145721094e+05
    2.2684050724e-02    1.0143791406e+05
    2.2705646232e-02    1.0142271094e+05
    2.2727232426e-02    1.0140614844e+05
    2.2748809308e-02    1.0139059375e+05
    2.2770375013e-02    1.0138144531e+05
    2.2791929543e-02    1.0138384375e+05
    2.2813472897e-02    1.0138896094e+05
    2.2835006937e-02    1.0139553906e+05
    2.2856531665e-02    1.0139978906e+05
    2.2878047079e-02    1.0141291406e+05
    2.2899549454e-02    1.0142641406e+05
    2.2921044379e-02    1.0145333594e+05
    2.2942528129e-02    1.0147219531e+05
    2.2964000702e-02    1.0149140625e+05
    2.2985465825e-02    1.0151316406e+05
    2.3006917909e-02    1.0153981250e+05
    2.3028360680e-02    1.0156702344e+05
    2.3049792275e-02    1.0158296094e+05
    2.3071214557e-02    1.0160810156e+05
    2.3092625663e-02    1.0163499219e+05
    2.3114029318e-02    1.0165696094e+05
    2.3135419935e-02    1.0167360156e+05
    2.3156799376e-02    1.0169390625e+05
    2.3178169504e-02    1.0170985156e+05
    2.3199530318e-02    1.0172368750e+05
    2.3220879957e-02    1.0173786719e+05
    2.3242218420e-02    1.0175053906e+05
    2.3263547570e-02    1.0175735156e+05
    2.3284865543e-02    1.0176275781e+05
    2.3306174204e-02    1.0176378906e+05
    2.3327469826e-02    1.0177211719e+05
    2.3348756135e-02    1.0177914844e+05
    2.3370031267e-02    1.0177721094e+05
    2.3391297087e-02    1.0177817969e+05
    2.3412553594e-02    1.0177769531e+05
    2.3433798924e-02    1.0177224219e+05
    2.3455033079e-02    1.0177111719e+05
    2.3476256058e-02    1.0177133594e+05
    2.3497469723e-02    1.0177097656e+05
    2.3518672213e-02    1.0177239844e+05
    2.3539865389e-02    1.0177227344e+05
    2.3561049253e-02    1.0176246875e+05
    2.3582221940e-02    1.0175096094e+05
    2.3603385314e-02    1.0174590625e+05
    2.3624535650e-02    1.0174110156e+05
    2.3645676672e-02    1.0174146094e+05
    2.3666808382e-02    1.0173856250e+05
    2.3687927052e-02    1.0172914844e+05
    2.3709038273e-02    1.0171960156e+05
    2.3730138317e-02    1.0170510156e+05
    2.3751227185e-02    1.0169858594e+05
    2.3772306740e-02    1.0169310156e+05
    2.3793375120e-02    1.0169243750e+05
    2.3814432323e-02    1.0169355469e+05
    2.3835480213e-02    1.0169464844e+05
    2.3856516927e-02    1.0169196094e+05
    2.3877544329e-02    1.0168985156e+05
    2.3898560554e-02    1.0169250000e+05
    2.3919565603e-02    1.0169539844e+05
    2.3940561339e-02    1.0169480469e+05
    2.3961545900e-02    1.0170391406e+05
    2.3982519284e-02    1.0171327344e+05
    2.4003483355e-02    1.0171546094e+05
    2.4024436250e-02    1.0172778125e+05
    2.4045377970e-02    1.0174196094e+05
    2.4066310376e-02    1.0175752344e+05
    2.4087233469e-02    1.0177362500e+05
    2.4108145386e-02    1.0178983594e+05
    2.4129044265e-02    1.0180084375e+05
    2.4149935693e-02    1.0181252344e+05
    2.4170814082e-02    1.0182255469e+05
    2.4191683158e-02    1.0183893750e+05
    2.4212542921e-02    1.0185747656e+05
    2.4233391508e-02    1.0187678906e+05
    2.4254228920e-02    1.0188735156e+05
    2.4275057018e-02    1.0190249219e+05
    2.4295873940e-02    1.0190834375e+05
    2.4316681549e-02    1.0191828906e+05
    2.4337477982e-02    1.0191857031e+05
    2.4358265102e-02    1.0192803906e+05
    2.4379042909e-02    1.0192746094e+05
    2.4399809539e-02    1.0192416406e+05
    2.4420566857e-02    1.0192015625e+05
    2.4441312999e-02    1.0190938281e+05
    2.4462047964e-02    1.0189327344e+05
    2.4482775480e-02    1.0187447656e+05
    2.4503491819e-02    1.0185391406e+05
    2.4524198845e-02    1.0182396094e+05
    2.4544894695e-02    1.0179583594e+05
    2.4565581232e-02    1.0175878906e+05
    2.4586258456e-02    1.0171960156e+05
    2.4606924504e-02    1.0168558594e+05
    2.4627581239e-02    1.0164475000e+05
    2.4648228660e-02    1.0160681250e+05
    2.4668866768e-02    1.0156635156e+05
    2.4689495564e-02    1.0153172656e+05
    2.4710113183e-02    1.0150200781e+05
    2.4730721489e-02    1.0147321094e+05
    2.4751318619e-02    1.0145433594e+05
    2.4771906435e-02    1.0144199219e+05
    2.4792486802e-02    1.0144458594e+05
    2.4813055992e-02    1.0145502344e+05
    2.4833614007e-02    1.0146859375e+05
    2.4854162708e-02    1.0148664844e+05
    2.4874702096e-02    1.0151152344e+05
    2.4895232171e-02    1.0154002344e+05
    2.4915752932e-02    1.0156593750e+05
    2.4936262518e-02    1.0159647656e+05
    2.4956764653e-02    1.0162046094e+05
    2.4977253750e-02    1.0165492969e+05
    2.4997735396e-02    1.0168250781e+05
    2.5018205866e-02    1.0171256250e+05
    2.5038668886e-02    1.0173953906e+05
    2.5059120730e-02    1.0176311719e+05
    2.5079563260e-02    1.0178840625e+05
    2.5099996477e-02    1.0180442969e+05
    2.5120420381e-02    1.0182118750e+05
    2.5140833110e-02    1.0183675781e+05
    2.5161236525e-02    1.0185280469e+05
    2.5181630626e-02    1.0186999219e+05
    2.5202017277e-02    1.0188727344e+05
    2.5222390890e-02    1.0190477344e+05
    2.5242757052e-02    1.0192315625e+05
    2.5263112038e-02    1.0194241406e+05
    2.5283459574e-02    1.0196147656e+05
    2.5303795934e-02    1.0198724219e+05
    2.5324124843e-02    1.0200789844e+05
    2.5344440714e-02    1.0203021094e+05
    2.5364749134e-02    1.0205064844e+05
    2.5385048240e-02    1.0207852344e+05
    2.5405339897e-02    1.0209721875e+05
    2.5425618514e-02    1.0211902344e+05
    2.5445887819e-02    1.0214196094e+05
    2.5466147810e-02    1.0216371094e+05
    2.5486400351e-02    1.0218117969e+05
    2.5506639853e-02    1.0219103125e+05
    2.5526873767e-02    1.0220511719e+05
    2.5547094643e-02    1.0220800781e+05
    2.5567308068e-02    1.0221432031e+05
    2.5587510318e-02    1.0222296094e+05
    2.5607703254e-02    1.0222602344e+05
    2.5627886876e-02    1.0222778906e+05
    2.5648061186e-02    1.0222116406e+05
    2.5668226182e-02    1.0221839844e+05
    2.5688380003e-02    1.0220752344e+05
    2.5708526373e-02    1.0219460156e+05
    2.5728661567e-02    1.0218281250e+05
    2.5748789310e-02    1.0217053125e+05
    2.5768904015e-02    1.0215203906e+05
    2.5789011270e-02    1.0213572656e+05
    2.5809109211e-02    1.0211658594e+05
    2.5829195976e-02    1.0209640625e+05
    2.5849273428e-02    1.0207593750e+05
    2.5869343430e-02    1.0205366406e+05
    2.5889402255e-02    1.0203752344e+05
    2.5909451768e-02    1.0201566406e+05
    2.5929493830e-02    1.0199485156e+05
    2.5949522853e-02    1.0197478906e+05
    2.5969544426e-02    1.0194968750e+05
    2.5989556685e-02    1.0192843750e+05
    2.6009559631e-02    1.0191246094e+05
    2.6029553264e-02    1.0189760156e+05
    2.6049537584e-02    1.0188516406e+05
    2.6069512591e-02    1.0187186719e+05
    2.6089478284e-02    1.0186125781e+05
    2.6109432802e-02    1.0185152344e+05
    2.6129379869e-02    1.0184557031e+05
    2.6149315760e-02    1.0184787500e+05
    2.6169244200e-02    1.0185202344e+05
    2.6189163327e-02    1.0185614844e+05
    2.6209073141e-02    1.0185415625e+05
    2.6228975505e-02    1.0185172656e+05
    2.6248866692e-02    1.0185010156e+05
    2.6268748567e-02    1.0185750781e+05
    2.6288621128e-02    1.0186607031e+05
    2.6308484375e-02    1.0186511719e+05
    2.6328338310e-02    1.0186828125e+05
    2.6348184794e-02    1.0187068750e+05
    2.6368021965e-02    1.0187646094e+05
    2.6387847960e-02    1.0187560156e+05
    2.6407664642e-02    1.0187441406e+05
    2.6427472010e-02    1.0187235156e+05
    2.6447271928e-02    1.0187621875e+05
    2.6467062533e-02    1.0187375000e+05
    2.6486843824e-02    1.0187510156e+05
    2.6506617665e-02    1.0187122656e+05
    2.6526380330e-02    1.0186890625e+05
    2.6546133682e-02    1.0186632031e+05
    2.6565877721e-02    1.0186119531e+05
    2.6585612446e-02    1.0185763281e+05
    2.6605339721e-02    1.0185747656e+05
    2.6625057682e-02    1.0185155469e+05
    2.6644766331e-02    1.0185443750e+05
    2.6664465666e-02    1.0184635156e+05
    2.6684155688e-02    1.0185519531e+05
    2.6703836396e-02    1.0185271094e+05
    2.6723509654e-02    1.0185265625e+05
    2.6743173599e-02    1.0185280469e+05
    2.6762828231e-02    1.0185858594e+05
    2.6782475412e-02    1.0186503125e+05
    2.6802113280e-02    1.0186671094e+05
    2.6821739972e-02    1.0187510156e+05
    2.6841359213e-02    1.0188261719e+05
    2.6860967278e-02    1.0189115625e+05
    2.6880569756e-02    1.0190125000e+05
    2.6900164783e-02    1.0190725781e+05
    2.6919748634e-02    1.0191489844e+05
    2.6939325035e-02    1.0192643750e+05
    2.6958892122e-02    1.0193222656e+05
    2.6978449896e-02    1.0192756250e+05
    2.6997998357e-02    1.0193196094e+05
    2.7017539367e-02    1.0194518750e+05
    2.7037071064e-02    1.0195060156e+05
    2.7056595311e-02    1.0195427344e+05
    2.7076110244e-02    1.0195889844e+05
    2.7095617726e-02    1.0196160156e+05
    2.7115115896e-02    1.0196024219e+05
    2.7134604752e-02    1.0196368750e+05
    2.7154086158e-02    1.0196696094e+05
    2.7173558250e-02    1.0196528125e+05
    2.7193021029e-02    1.0196750000e+05
    2.7212476358e-02    1.0196950781e+05
    2.7231922373e-02    1.0197194531e+05
    2.7251357213e-02    1.0197412500e+05
    2.7270786464e-02    1.0197557031e+05
    2.7290204540e-02    1.0197346875e+05
    2.7309613302e-02    1.0197450781e+05
    2.7329014614e-02    1.0197185156e+05
    2.7348404750e-02    1.0197378125e+05
    2.7367785573e-02    1.0197503906e+05
    2.7387158945e-02    1.0197975000e+05
    2.7406521142e-02    1.0197922656e+05
    2.7425874025e-02    1.0198202344e+05
    2.7445219457e-02    1.0198366406e+05
    2.7464553714e-02    1.0198510156e+05
    2.7483878657e-02    1.0197696875e+05
    2.7503194287e-02    1.0198028906e+05
    2.7522502467e-02    1.0198759375e+05
    2.7541799471e-02    1.0198925000e+05
    2.7561087161e-02    1.0198791406e+05
    2.7580365539e-02    1.0198087500e+05
    2.7599634603e-02    1.0198289844e+05
    2.7618894354e-02    1.0198266406e+05
    2.7638144791e-02    1.0198957031e+05
    2.7657385916e-02    1.0199527344e+05
    2.7676619589e-02    1.0198964844e+05
    2.7695843950e-02    1.0199089844e+05
    2.7715058997e-02    1.0198968750e+05
    2.7734262869e-02    1.0199422656e+05
    2.7753459290e-02    1.0199163281e+05
    2.7772648260e-02    1.0199258594e+05
    2.7791827917e-02    1.0199344531e+05
    2.7810998261e-02    1.0199533594e+05
    2.7830159292e-02    1.0199464844e+05
    2.7849311009e-02    1.0199275781e+05
    2.7868455276e-02    1.0199803906e+05
    2.7887590230e-02    1.0199890625e+05
    2.7906717733e-02    1.0200064844e+05
    2.7925835922e-02    1.0200391406e+05
    2.7944946662e-02    1.0201359375e+05
    2.7964048088e-02    1.0201647656e+05
    2.7983140200e-02    1.0200874219e+05
    2.8002224863e-02    1.0200989844e+05
    2.8021300212e-02    1.0201100781e+05
    2.8040368110e-02    1.0201328125e+05
    2.8059426695e-02    1.0201816406e+05
    2.8078475967e-02    1.0202541406e+05
    2.8097519651e-02    1.0202415625e+05
    2.8116554022e-02    1.0202278906e+05
    2.8135580942e-02    1.0201830469e+05
    2.8154598549e-02    1.0201885156e+05
    2.8173606843e-02    1.0201933594e+05
    2.8192607686e-02    1.0202500000e+05
    2.8211599216e-02    1.0202256250e+05
    2.8230583295e-02    1.0202115625e+05
    2.8249559924e-02    1.0202556250e+05
    2.8268527240e-02    1.0202747656e+05
    2.8287487105e-02    1.0202228906e+05
    2.8306435794e-02    1.0202291406e+05
    2.8325378895e-02    1.0202664844e+05
    2.8344312683e-02    1.0202577344e+05
    2.8363237157e-02    1.0202739844e+05
    2.8382156044e-02    1.0203258594e+05
    2.8401065618e-02    1.0203577344e+05
    2.8419965878e-02    1.0202983594e+05
    2.8438858688e-02    1.0202815625e+05
    2.8457742184e-02    1.0202861719e+05
    2.8476616368e-02    1.0203016406e+05
    2.8495483100e-02    1.0203078906e+05
    2.8514338657e-02    1.0203275000e+05
    2.8533160686e-02    1.0203253906e+05
    2.8551930562e-02    1.0203469531e+05
    2.8570635244e-02    1.0204264844e+05
    2.8589271009e-02    1.0203667969e+05
    2.8607837856e-02    1.0203990625e+05
    2.8626350686e-02    1.0203939844e+05
    2.8644818813e-02    1.0203988281e+05
    2.8663259000e-02    1.0204087500e+05
    2.8681686148e-02    1.0204178906e+05
    2.8700113297e-02    1.0204282031e+05
    2.8718546033e-02    1.0204314844e+05
    2.8736986220e-02    1.0204342969e+05
    2.8755431995e-02    1.0204466406e+05
    2.8773877770e-02    1.0204583594e+05
    2.8792314231e-02    1.0204572656e+05
    2.8810730204e-02    1.0204671094e+05
    2.8829116374e-02    1.0204703906e+05
    2.8847465292e-02    1.0204731250e+05
    2.8865773231e-02    1.0204353906e+05
    2.8884036466e-02    1.0204841406e+05
    2.8902258724e-02    1.0204808594e+05
    2.8920443729e-02    1.0204727344e+05
    2.8938598931e-02    1.0204815625e+05
    2.8956729919e-02    1.0204800000e+05
    2.8974846005e-02    1.0204978906e+05
    2.8992949054e-02    1.0205060156e+05
    2.9011042789e-02    1.0205510156e+05
    2.9029129073e-02    1.0205863281e+05
    2.9047204182e-02    1.0205531250e+05
    2.9065268114e-02    1.0205990625e+05
    2.9083315283e-02    1.0205615625e+05
    2.9101338238e-02    1.0205703125e+05
    2.9119335115e-02    1.0205908594e+05
    2.9137304053e-02    1.0206008594e+05
    2.9155241325e-02    1.0206066406e+05
    2.9173148796e-02    1.0206264844e+05
    2.9191024601e-02    1.0207331250e+05
    2.9208874330e-02    1.0207003125e+05
    2.9226697981e-02    1.0206677344e+05
    2.9244501144e-02    1.0206667969e+05
    2.9262285680e-02    1.0206824219e+05
    2.9280053452e-02    1.0206974219e+05
    2.9297806323e-02    1.0207117969e+05
    2.9315544292e-02    1.0207235156e+05
    2.9333265498e-02    1.0207009375e+05
    2.9350971803e-02    1.0206430469e+05
    2.9368655756e-02    1.0207168750e+05
    2.9386319220e-02    1.0207467969e+05
    2.9403960332e-02    1.0207537500e+05
    2.9421577230e-02    1.0207491406e+05
    2.9439168051e-02    1.0207566406e+05
    2.9456734657e-02    1.0207661719e+05
    2.9474277049e-02    1.0207758594e+05
    2.9491795227e-02    1.0207971094e+05
    2.9509292915e-02    1.0208064844e+05
    2.9526771978e-02    1.0207933594e+05
    2.9544232413e-02    1.0208021094e+05
    2.9561674222e-02    1.0208208594e+05
    2.9579099268e-02    1.0208328125e+05
    2.9596509412e-02    1.0208322656e+05
    2.9613900930e-02    1.0208310156e+05
    2.9631273821e-02    1.0208285156e+05
    2.9648626223e-02    1.0208262500e+05
    2.9665958136e-02    1.0208249219e+05
    2.9683271423e-02    1.0208303125e+05
    2.9700560495e-02    1.0208252344e+05
    2.9717829078e-02    1.0208432031e+05
    2.9735075310e-02    1.0208612500e+05
    2.9752301052e-02    1.0208689844e+05
    2.9769508168e-02    1.0208366406e+05
    2.9786696658e-02    1.0208937500e+05
    2.9803866521e-02    1.0208647656e+05
    2.9821017757e-02    1.0208705469e+05
    2.9838152230e-02    1.0208991406e+05
    2.9855269939e-02    1.0209046094e+05
    2.9872370884e-02    1.0209106250e+05
    2.9889453202e-02    1.0208933594e+05
    2.9906518757e-02    1.0208871094e+05
    2.9923565686e-02    1.0208693750e+05
    2.9940593988e-02    1.0208497656e+05
    2.9957601801e-02    1.0208984375e+05
    2.9974590987e-02    1.0209252344e+05
    2.9991561547e-02    1.0208603125e+05
    3.0008511618e-02    1.0209103906e+05
    3.0025444925e-02    1.0208809375e+05
    3.0042361468e-02    1.0209081250e+05
    3.0059259385e-02    1.0209585156e+05
    3.0076142401e-02    1.0208725781e+05
    3.0093006790e-02    1.0208891406e+05
    3.0109854415e-02    1.0209627344e+05
    3.0126683414e-02    1.0209790625e+05
    3.0143497512e-02    1.0208914844e+05
    3.0160292983e-02    1.0209137500e+05
    3.0177071691e-02    1.0208996094e+05
    3.0193833634e-02    1.0209028906e+05
    3.0210576952e-02    1.0209242969e+05
    3.0227303505e-02    1.0209128906e+05
    3.0244011432e-02    1.0209540625e+05
    3.0260702595e-02    1.0209396094e+05
    3.0277376994e-02    1.0209599219e+05
    3.0294034630e-02    1.0209688281e+05
    3.0310675502e-02    1.0209778906e+05
    3.0327299610e-02    1.0209847656e+05
    3.0343905091e-02    1.0209824219e+05
    3.0360495672e-02    1.0208939844e+05
    3.0377071351e-02    1.0208324219e+05
    3.0393628404e-02    1.0207786719e+05
    3.0410168692e-02    1.0207591406e+05
    3.0426690355e-02    1.0206458594e+05
    3.0443195254e-02    1.0206237500e+05
    3.0459685251e-02    1.0206271094e+05
    3.0476156622e-02    1.0206638281e+05
    3.0492611229e-02    1.0205757031e+05
    3.0509050936e-02    1.0205649219e+05
    3.0525473878e-02    1.0205397656e+05
    3.0541881919e-02    1.0204653125e+05
    3.0558273196e-02    1.0203902344e+05
    3.0574647710e-02    1.0203583594e+05
    3.0591005459e-02    1.0203260156e+05
    3.0607348308e-02    1.0202892969e+05
    3.0623674393e-02    1.0202652344e+05
    3.0639985576e-02    1.0202861719e+05
    3.0656279996e-02    1.0203208594e+05
    3.0672557652e-02    1.0203037500e+05
    3.0688818544e-02    1.0203775000e+05
    3.0705062672e-02    1.0203639844e+05
    3.0721291900e-02    1.0204069531e+05
    3.0737506226e-02    1.0204511719e+05
    3.0753703788e-02    1.0205010156e+05
    3.0769886449e-02    1.0205410156e+05
    3.0786054209e-02    1.0205871875e+05
    3.0802207068e-02    1.0206610156e+05
    3.0818343163e-02    1.0207307031e+05
    3.0834466219e-02    1.0208035156e+05
    3.0850572512e-02    1.0208724219e+05
    3.0866663903e-02    1.0209659375e+05
    3.0882738531e-02    1.0209955469e+05
    3.0898798257e-02    1.0210377344e+05
    3.0914843082e-02    1.0211278906e+05
    3.0930871144e-02    1.0211819531e+05
    3.0946886167e-02    1.0212471094e+05
    3.0962884426e-02    1.0211975781e+05
    3.0978867784e-02    1.0213252344e+05
    3.0994836241e-02    1.0213607031e+05
    3.1010789797e-02    1.0213328125e+05
    3.1026728451e-02    1.0213428906e+05
    3.1042650342e-02    1.0213760156e+05
    3.1058559194e-02    1.0214260156e+05
    3.1074455008e-02    1.0214632031e+05
    3.1090334058e-02    1.0214971875e+05
    3.1106200069e-02    1.0215266406e+05
    3.1122051179e-02    1.0214589844e+05
    3.1137887388e-02    1.0213858594e+05
    3.1153710559e-02    1.0214003906e+05
    3.1169516966e-02    1.0214247656e+05
    3.1185310334e-02    1.0214133594e+05
    3.1201090664e-02    1.0213427344e+05
    3.1216854230e-02    1.0213622656e+05
    3.1232602894e-02    1.0213709375e+05
    3.1248336658e-02    1.0213794531e+05
    3.1264055520e-02    1.0213872656e+05
    3.1279761344e-02    1.0214108594e+05
    3.1295452267e-02    1.0213978906e+05
    3.1311132014e-02    1.0213312500e+05
    3.1326796860e-02    1.0213422656e+05
    3.1342446804e-02    1.0213410156e+05
    3.1358085573e-02    1.0213388281e+05
    3.1373709440e-02    1.0213416406e+05
    3.1389318407e-02    1.0212975000e+05
    3.1404916197e-02    1.0212827344e+05
    3.1420499086e-02    1.0212332031e+05
    3.1436067075e-02    1.0212753906e+05
    3.1451620162e-02    1.0212533594e+05
    3.1467158347e-02    1.0212311719e+05
    3.1482685357e-02    1.0212160156e+05
    3.1498193741e-02    1.0212703906e+05
    3.1513694674e-02    1.0213019531e+05
    3.1529176980e-02    1.0212621875e+05
    3.1544648111e-02    1.0212069531e+05
    3.1560108066e-02    1.0211964844e+05
    3.1575553119e-02    1.0212036719e+05
    3.1590986997e-02    1.0212343750e+05
    3.1606405973e-02    1.0211831250e+05
    3.1621813774e-02    1.0211669531e+05
    3.1637206674e-02    1.0212309375e+05
    3.1652588397e-02    1.0212394531e+05
    3.1667951494e-02    1.0212349219e+05
    3.1683307141e-02    1.0211844531e+05
    3.1698647887e-02    1.0211471094e+05
    3.1713977456e-02    1.0211074219e+05
    3.1729292125e-02    1.0210942969e+05
    3.1744595617e-02    1.0210782031e+05
    3.1759884208e-02    1.0209558594e+05
    3.1775161624e-02    1.0209453906e+05
    3.1790427864e-02    1.0209236719e+05
    3.1805675477e-02    1.0208909375e+05
    3.1820915639e-02    1.0208944531e+05
    3.1836140901e-02    1.0209471094e+05
    3.1851354986e-02    1.0209322656e+05
    3.1866557896e-02    1.0209175000e+05
    3.1881745905e-02    1.0208690625e+05
    3.1896922737e-02    1.0208769531e+05
    3.1912088394e-02    1.0208852344e+05
    3.1927239150e-02    1.0208714844e+05
    3.1942378730e-02    1.0208688281e+05
    3.1957507133e-02    1.0208439844e+05
    3.1972620636e-02    1.0208421875e+05
    3.1987726688e-02    1.0208197656e+05
    3.2002814114e-02    1.0208172656e+05
    3.2017890364e-02    1.0208808594e+05
    3.2032959163e-02    1.0209071094e+05
    3.2048013061e-02    1.0209102344e+05
    3.2063052058e-02    1.0208214844e+05
    3.2078083605e-02    1.0208296875e+05
    3.2093103975e-02    1.0208260156e+05
    3.2108109444e-02    1.0208117969e+05
    3.2123107463e-02    1.0208207031e+05
    3.2138090581e-02    1.0209000781e+05
    3.2153062522e-02    1.0208872656e+05
    3.2168023288e-02    1.0208857031e+05
    3.2182972878e-02    1.0208830469e+05
    3.2197911292e-02    1.0208692969e+05
    3.2212834805e-02    1.0208778125e+05
    3.2227750868e-02    1.0208758594e+05
    3.2242652029e-02    1.0208856250e+05
    3.2257542014e-02    1.0208860156e+05
    3.2272424549e-02    1.0208889844e+05
    3.2287292182e-02    1.0208952344e+05
    3.2302148640e-02    1.0210028906e+05
    3.2316997647e-02    1.0210213281e+05
    3.2331831753e-02    1.0210227344e+05
    3.2346658409e-02    1.0210346094e+05
    3.2361470163e-02    1.0209756250e+05
    3.2376270741e-02    1.0209588281e+05
    3.2391063869e-02    1.0209578906e+05
    3.2405842096e-02    1.0209675000e+05
    3.2420612872e-02    1.0209707031e+05
    3.2435368747e-02    1.0209732031e+05
    3.2450113446e-02    1.0209753906e+05
    3.2464850694e-02    1.0209885156e+05
    3.2479573041e-02    1.0209793750e+05
    3.2494287938e-02    1.0209816406e+05
    3.2508991659e-02    1.0209853906e+05
    3.2523684204e-02    1.0209913281e+05
    3.2538365573e-02    1.0210105469e+05
    3.2553035766e-02    1.0210439844e+05
    3.2567698509e-02    1.0210775000e+05
    3.2582346350e-02    1.0210424219e+05
    3.2596986741e-02    1.0210522656e+05
    3.2611619681e-02    1.0210614844e+05
    3.2626237720e-02    1.0210749219e+05
    3.2640848309e-02    1.0210755469e+05
    3.2655447721e-02    1.0210853125e+05
    3.2670035958e-02    1.0210878125e+05
    3.2684613019e-02    1.0210838281e+05
    3.2699178904e-02    1.0210717969e+05
    3.2713737339e-02    1.0210017969e+05
    3.2728284597e-02    1.0209883594e+05
    3.2742820680e-02    1.0209985156e+05
    3.2757349312e-02    1.0209928906e+05
    3.2771866769e-02    1.0210921875e+05
    3.2786373049e-02    1.0210897656e+05
    3.2800871879e-02    1.0210993750e+05
    3.2815355808e-02    1.0211024219e+05
    3.2829832286e-02    1.0210015625e+05
    3.2844301313e-02    1.0210142969e+05
    3.2858755440e-02    1.0210050781e+05
    3.2873202115e-02    1.0211039844e+05
    3.2887637615e-02    1.0210884375e+05
    3.2902065665e-02    1.0210184375e+05
    3.2916482538e-02    1.0210171875e+05
    3.2930891961e-02    1.0210158594e+05
    3.2945290208e-02    1.0210030469e+05
    3.2959677279e-02    1.0210003125e+05
    3.2974056900e-02    1.0209861719e+05
    3.2988425344e-02    1.0209944531e+05
    3.3002786338e-02    1.0209910156e+05
    3.3017136157e-02    1.0209869531e+05
    3.3031478524e-02    1.0209816406e+05
    3.3045809716e-02    1.0209740625e+05
    3.3060129732e-02    1.0208725781e+05
    3.3074442297e-02    1.0208603125e+05
    3.3088747412e-02    1.0208469531e+05
    3.3103041351e-02    1.0208337500e+05
    3.3117324114e-02    1.0208213281e+05
    3.3131599426e-02    1.0208108594e+05
    3.3145863563e-02    1.0208008594e+05
    3.3160120249e-02    1.0207855469e+05
    3.3174365759e-02    1.0207824219e+05
    3.3188603818e-02    1.0208203125e+05
    3.3202830702e-02    1.0208560156e+05
    3.3217050135e-02    1.0207538281e+05
    3.3231258392e-02    1.0207358594e+05
    3.3245459199e-02    1.0207175000e+05
    3.3259648830e-02    1.0207166406e+05
    3.3273831010e-02    1.0207513281e+05
    3.3288005739e-02    1.0206942969e+05
    3.3302169293e-02    1.0206827344e+05
    3.3316325396e-02    1.0206589844e+05
    3.3330474049e-02    1.0206460156e+05
    3.3344611526e-02    1.0206321094e+05
    3.3358741552e-02    1.0206174219e+05
    3.3372864127e-02    1.0205800000e+05
    3.3386975527e-02    1.0205711719e+05
    3.3401079476e-02    1.0205857031e+05
    3.3415172249e-02    1.0205724219e+05
    3.3429257572e-02    1.0205600781e+05
    3.3443335444e-02    1.0205478906e+05
    3.3457405865e-02    1.0205359375e+05
    3.3471468836e-02    1.0205121094e+05
    3.3485524356e-02    1.0205003125e+05
    3.3499568701e-02    1.0204822656e+05
    3.3513605595e-02    1.0204769531e+05
    3.3527631313e-02    1.0204657031e+05
    3.3541653305e-02    1.0204549219e+05
    3.3555664122e-02    1.0204440625e+05
    3.3569667488e-02    1.0204450781e+05
    3.3583663404e-02    1.0204231250e+05
    3.3597648144e-02    1.0204235156e+05
    3.3611625433e-02    1.0204002344e+05
    3.3625595272e-02    1.0203978906e+05
    3.3639557660e-02    1.0202791406e+05
    3.3653512597e-02    1.0202666406e+05
    3.3667460084e-02    1.0202542969e+05
    3.3681396395e-02    1.0203166406e+05
    3.3695328981e-02    1.0202997656e+05
    3.3709254116e-02    1.0202890625e+05
    3.3723168075e-02    1.0202228125e+05
    3.3737078309e-02    1.0201603125e+05
    3.3750977367e-02    1.0202015625e+05
    3.3764872700e-02    1.0202100000e+05
    3.3778760582e-02    1.0201960156e+05
    3.3792637289e-02    1.0201933594e+05
    3.3806510270e-02    1.0201563281e+05
    3.3820372075e-02    1.0201299219e+05
    3.3834230155e-02    1.0201146094e+05
    3.3848077059e-02    1.0201440625e+05
    3.3861916512e-02    1.0200992969e+05
    3.3875752240e-02    1.0200638281e+05
    3.3889576793e-02    1.0200458594e+05
    3.3903393894e-02    1.0200064844e+05
    3.3917203546e-02    1.0199890625e+05
    3.3931009471e-02    1.0199500000e+05
    3.3944804221e-02    1.0199574219e+05
    3.3958595246e-02    1.0199668750e+05
    3.3972378820e-02    1.0199197656e+05
    3.3986151218e-02    1.0199991406e+05
    3.3999919891e-02    1.0199760156e+05
    3.4013681114e-02    1.0198835156e+05
    3.4027434886e-02    1.0198703125e+05
    3.4041177481e-02    1.0199017969e+05
    3.4054916352e-02    1.0199359375e+05
    3.4068647772e-02    1.0198608594e+05
    3.4082375467e-02    1.0198308594e+05
    3.4096091986e-02    1.0198421094e+05
    3.4109804779e-02    1.0198307031e+05
    3.4123510122e-02    1.0197961719e+05
    3.4137208015e-02    1.0198421094e+05
    3.4150898457e-02    1.0198452344e+05
    3.4164581448e-02    1.0197777344e+05
    3.4178260714e-02    1.0197789844e+05
    3.4191932529e-02    1.0197810156e+05
    3.4205596894e-02    1.0197728125e+05
    3.4219253808e-02    1.0197341406e+05
    3.4232903272e-02    1.0197293750e+05
    3.4246545285e-02    1.0197228125e+05
    3.4260183573e-02    1.0197039844e+05
    3.4273810685e-02    1.0196894531e+05
    3.4287434071e-02    1.0196733594e+05
    3.4301050007e-02    1.0196446094e+05
    3.4314658493e-02    1.0196264844e+05
    3.4328263253e-02    1.0196068750e+05
    3.4341860563e-02    1.0195646094e+05
    3.4355450422e-02    1.0195102344e+05
    3.4369036555e-02    1.0194546094e+05
    3.4382611513e-02    1.0194791406e+05
    3.4396182746e-02    1.0194835156e+05
    3.4409742802e-02    1.0194253906e+05
    3.4423299134e-02    1.0194244531e+05
    3.4436848015e-02    1.0193584375e+05
    3.4450393170e-02    1.0193389844e+05
    3.4463927150e-02    1.0193196094e+05
    3.4477461129e-02    1.0193217969e+05
    3.4490987659e-02    1.0193708594e+05
    3.4504506737e-02    1.0192817969e+05
    3.4518022090e-02    1.0192564844e+05
    3.4531529993e-02    1.0192361719e+05
    3.4545030445e-02    1.0191972656e+05
    3.4558523446e-02    1.0191760156e+05
    3.4572008997e-02    1.0191431250e+05
    3.4585487098e-02    1.0191207031e+05
    3.4598957747e-02    1.0190977344e+05
    3.4612424672e-02    1.0190675000e+05
    3.4625884145e-02    1.0190421094e+05
    3.4639336169e-02    1.0190219531e+05
    3.4652780741e-02    1.0189835156e+05
    3.4666225314e-02    1.0189671875e+05
    3.4679658711e-02    1.0189053906e+05
    3.4693088382e-02    1.0189108594e+05
    3.4706510603e-02    1.0188769531e+05
    3.4719929099e-02    1.0188555469e+05
    3.4733340144e-02    1.0188291406e+05
    3.4746743739e-02    1.0188055469e+05
    3.4760143608e-02    1.0187841406e+05
    3.4773536026e-02    1.0188100000e+05
    3.4786924720e-02    1.0187922656e+05
    3.4800305963e-02    1.0188099219e+05
    3.4813679755e-02    1.0188050000e+05
    3.4827046096e-02    1.0187877344e+05
    3.4840408713e-02    1.0187135156e+05
    3.4853763878e-02    1.0186721094e+05
    3.4867111593e-02    1.0186541406e+05
    3.4880455583e-02    1.0187114844e+05
    3.4893795848e-02    1.0187252344e+05
    3.4907124937e-02    1.0187107031e+05
    3.4920454025e-02    1.0186963281e+05
    3.4933775663e-02    1.0186761719e+05
    3.4947093576e-02    1.0186559375e+05
    3.4960404038e-02    1.0186408594e+05
    3.4973710775e-02    1.0186247656e+05
    3.4987010062e-02    1.0186087500e+05
endcurve
