Curveplot
LS-DYNA keyword deck by LS-PrePost                          
Time
Pressure
Defined Connection
Pressure @ 6 #pts=1745
* Minval=     9.7872117188e+04 at time=         0.0126772979
* Maxval=     1.7232768750e+05 at time=         0.0060591097
    0.0000000000e+00    9.9998085938e+04
    3.3812357287e-05    9.9998085938e+04
    6.1326652940e-05    9.9998281250e+04
    8.9102875791e-05    9.9998398438e+04
    1.1682785407e-04    9.9998523438e+04
    1.4461828687e-04    9.9998812500e+04
    1.7236733402e-04    9.9999351562e+04
    2.0016246708e-04    1.0000919531e+05
    2.2795486439e-04    1.0000057031e+05
    2.5574557367e-04    1.0000057031e+05
    2.8353667585e-04    1.0000025000e+05
    3.1133697485e-04    9.9990757812e+04
    3.3912662184e-04    9.9999718750e+04
    3.6691734567e-04    9.9999914062e+04
    3.9470891352e-04    1.0000037500e+05
    4.2249175021e-04    1.0001003906e+05
    4.5027161832e-04    1.0000139844e+05
    4.7804549104e-04    1.0000128906e+05
    5.0581363030e-04    9.9991882812e+04
    5.3357944125e-04    1.0000082031e+05
    5.6134146871e-04    1.0000091406e+05
    5.8909942163e-04    1.0000075781e+05
    6.1685312539e-04    1.0000044531e+05
    6.4460188150e-04    1.0000056250e+05
    6.7234638846e-04    1.0000108594e+05
    7.0008635521e-04    1.0001069531e+05
    7.2782178177e-04    9.9994812500e+04
    7.5555208605e-04    9.9991250000e+04
    7.8327720985e-04    9.9997625000e+04
    8.1099680392e-04    1.0000730469e+05
    8.3871174138e-04    1.0000611719e+05
    8.6642213864e-04    9.9994914062e+04
    8.9412782108e-04    9.9991757812e+04
    9.2182843946e-04    1.0000002344e+05
    9.4952445943e-04    1.0000437500e+05
    9.7721535712e-04    1.0000067969e+05
    1.0049008997e-03    1.0000108594e+05
    1.0325826006e-03    9.9995625000e+04
    1.0602590628e-03    1.0000027344e+05
    1.0879321489e-03    1.0001027344e+05
    1.1155996472e-03    1.0000435156e+05
    1.1432634201e-03    9.9997726562e+04
    1.1709230021e-03    9.9992187500e+04
    1.1985785095e-03    9.9991070312e+04
    1.2262313394e-03    1.0000496094e+05
    1.2538790470e-03    1.0001124219e+05
    1.2815232622e-03    1.0000772656e+05
    1.3091630535e-03    9.9994664062e+04
    1.3368004002e-03    9.9995585938e+04
    1.3644339051e-03    1.0000668750e+05
    1.3920635683e-03    1.0002827344e+05
    1.4196902048e-03    1.0006162500e+05
    1.4473132323e-03    1.0010080469e+05
    1.4749332331e-03    1.0018540625e+05
    1.5025498578e-03    1.0032381250e+05
    1.5301633393e-03    1.0051964844e+05
    1.5577742597e-03    1.0077212500e+05
    1.5853822697e-03    1.0109352344e+05
    1.6129877185e-03    1.0146702344e+05
    1.6405890929e-03    1.0186572656e+05
    1.6681876732e-03    1.0225421094e+05
    1.6957829939e-03    1.0259992969e+05
    1.7233766848e-03    1.0287310156e+05
    1.7509678146e-03    1.0305111719e+05
    1.7785291420e-03    1.0313687500e+05
    1.8060547300e-03    1.0312959375e+05
    1.8335470231e-03    1.0305722656e+05
    1.8610082334e-03    1.0292165625e+05
    1.8884401070e-03    1.0274680469e+05
    1.9158447394e-03    1.0257037500e+05
    1.9432241097e-03    1.0241660156e+05
    1.9705800805e-03    1.0230341406e+05
    1.9979148638e-03    1.0223391406e+05
    2.0252298564e-03    1.0219683594e+05
    2.0525271539e-03    1.0221216406e+05
    2.0798076876e-03    1.0226856250e+05
    2.1070730872e-03    1.0234377344e+05
    2.1343247499e-03    1.0242635156e+05
    2.1615643054e-03    1.0250214844e+05
    2.1887931507e-03    1.0255694531e+05
    2.2160108201e-03    1.0259335156e+05
    2.2432196420e-03    1.0262203906e+05
    2.2704207804e-03    1.0265794531e+05
    2.2976147011e-03    1.0270661719e+05
    2.3248014040e-03    1.0277239844e+05
    2.3519827519e-03    1.0287405469e+05
    2.3791582789e-03    1.0300574219e+05
    2.4063293822e-03    1.0316932031e+05
    2.4334960617e-03    1.0334978906e+05
    2.4606597144e-03    1.0353271875e+05
    2.4878205732e-03    1.0370862500e+05
    2.5149781723e-03    1.0385240625e+05
    2.5421329774e-03    1.0396109375e+05
    2.5692859199e-03    1.0402205469e+05
    2.5964374654e-03    1.0403377344e+05
    2.6235871483e-03    1.0400850000e+05
    2.6507352013e-03    1.0394768750e+05
    2.6778825559e-03    1.0386431250e+05
    2.7050296776e-03    1.0374874219e+05
    2.7321761008e-03    1.0362922656e+05
    2.7593218256e-03    1.0350049219e+05
    2.7864677832e-03    1.0337668750e+05
    2.8136142064e-03    1.0325852344e+05
    2.8407603968e-03    1.0315522656e+05
    2.8679079842e-03    1.0306463281e+05
    2.8950548731e-03    1.0298928906e+05
    2.9222022276e-03    1.0292550781e+05
    2.9493502807e-03    1.0286435156e+05
    2.9764990322e-03    1.0280634375e+05
    3.0036487151e-03    1.0276403125e+05
    3.0307997949e-03    1.0272891406e+05
    3.0579508748e-03    1.0271225781e+05
    3.0851035845e-03    1.0270966406e+05
    3.1122572254e-03    1.0271977344e+05
    3.1394117977e-03    1.0273585156e+05
    3.1665677670e-03    1.0275752344e+05
    3.1937246677e-03    1.0277672656e+05
    3.2208829653e-03    1.0278909375e+05
    3.2480424270e-03    1.0279264844e+05
    3.2752046827e-03    1.0278589844e+05
    3.2952371985e-03    1.0276905469e+05
    3.3145032357e-03    1.0274837500e+05
    3.3336398192e-03    1.0272764844e+05
    3.3528339118e-03    1.0269960156e+05
    3.3720366191e-03    1.0267058594e+05
    3.3912549261e-03    1.0263571094e+05
    3.4104890656e-03    1.0259417969e+05
    3.4297339153e-03    1.0254588281e+05
    3.4486323129e-03    1.0248842969e+05
    3.4671388566e-03    1.0241772656e+05
    3.4854323603e-03    1.0234822656e+05
    3.5036695190e-03    1.0226147656e+05
    3.5219141282e-03    1.0217421875e+05
    3.5401545465e-03    1.0207978906e+05
    3.5583588760e-03    1.0198439844e+05
    3.5765271168e-03    1.0189314844e+05
    3.5946895368e-03    1.0180535156e+05
    3.6139658187e-03    1.0172671875e+05
    3.6330535077e-03    1.0165539844e+05
    3.6521453876e-03    1.0160049219e+05
    3.6699753255e-03    1.0155310156e+05
    3.6875614896e-03    1.0151677344e+05
    3.7050142419e-03    1.0148621094e+05
    3.7224807311e-03    1.0145867969e+05
    3.7400643341e-03    1.0143144531e+05
    3.7577797193e-03    1.0140884375e+05
    3.7755726371e-03    1.0138360156e+05
    3.7933769636e-03    1.0135986719e+05
    3.8111612666e-03    1.0133736719e+05
    3.8289318327e-03    1.0131338281e+05
    3.8467168342e-03    1.0128950781e+05
    3.8645383902e-03    1.0126111719e+05
    3.8824023213e-03    1.0122981250e+05
    3.9002960548e-03    1.0119083594e+05
    3.9182156324e-03    1.0114813281e+05
    3.9361710660e-03    1.0109952344e+05
    3.9541716687e-03    1.0105213281e+05
    3.9733103476e-03    1.0100375000e+05
    3.9924201556e-03    1.0095164844e+05
    4.0104058571e-03    1.0090425000e+05
    4.0284004062e-03    1.0086553906e+05
    4.0464363992e-03    1.0083017969e+05
    4.0656095371e-03    1.0080375000e+05
    4.0847789496e-03    1.0077718750e+05
    4.1039343923e-03    1.0076258594e+05
    4.1219722480e-03    1.0074688281e+05
    4.1400394402e-03    1.0073894531e+05
    4.1591953486e-03    1.0073413281e+05
    4.1784178466e-03    1.0073646094e+05
    4.1976389475e-03    1.0073727344e+05
    4.2168586515e-03    1.0074053906e+05
    4.2360713705e-03    1.0074575000e+05
    4.2552771047e-03    1.0075328906e+05
    4.2744791135e-03    1.0076721094e+05
    4.2936825193e-03    1.0078121094e+05
    4.3128933758e-03    1.0079181250e+05
    4.3321144767e-03    1.0079908594e+05
    4.3513495475e-03    1.0080636719e+05
    4.3705995195e-03    1.0081085156e+05
    4.3898657896e-03    1.0080952344e+05
    4.4091497548e-03    1.0080625000e+05
    4.4284537435e-03    1.0079589844e+05
    4.4477786869e-03    1.0078269531e+05
    4.4671236537e-03    1.0076132031e+05
    4.4864914380e-03    1.0073353906e+05
    4.5058806427e-03    1.0069465625e+05
    4.5252908021e-03    1.0065333594e+05
    4.5447219163e-03    1.0060041406e+05
    4.5641721226e-03    1.0054557031e+05
    4.5836409554e-03    1.0048453906e+05
    4.6031279489e-03    1.0042102344e+05
    4.6226321720e-03    1.0035817969e+05
    4.6421540901e-03    1.0029752344e+05
    4.6616927721e-03    1.0024041406e+05
    4.6812482178e-03    1.0019071875e+05
    4.7008208930e-03    1.0014780469e+05
    4.7204112634e-03    1.0011925000e+05
    4.7400193289e-03    1.0009747656e+05
    4.7596455552e-03    1.0008953125e+05
    4.7792894766e-03    1.0009342969e+05
    4.7989510931e-03    1.0010886719e+05
    4.8186304048e-03    1.0013750000e+05
    4.8383255489e-03    1.0017228906e+05
    4.8580355942e-03    1.0020733594e+05
    4.8777610064e-03    1.0024397656e+05
    4.8975008540e-03    1.0028572656e+05
    4.9172551371e-03    1.0032257031e+05
    4.9370229244e-03    1.0036028125e+05
    4.9568060786e-03    1.0039588281e+05
    4.9766036682e-03    1.0043103125e+05
    4.9964170903e-03    1.0046052344e+05
    5.0162458792e-03    1.0048172656e+05
    5.0360900350e-03    1.0049861719e+05
    5.0559476949e-03    1.0051617969e+05
    5.0758207217e-03    1.0052497656e+05
    5.0957072526e-03    1.0053714844e+05
    5.1156077534e-03    1.0054563281e+05
    5.1355226897e-03    1.0055113281e+05
    5.1554525271e-03    1.0055789844e+05
    5.1753963344e-03    1.0055747656e+05
    5.1953555085e-03    1.0056564844e+05
    5.2153295837e-03    1.0056935156e+05
    5.2353194915e-03    1.0057787500e+05
    5.2553247660e-03    1.0058459375e+05
    5.2753463387e-03    1.0059628906e+05
    5.2953832783e-03    1.0060622656e+05
    5.3154369816e-03    1.0061210156e+05
    5.3355065174e-03    1.0062510156e+05
    5.3555918857e-03    1.0063783594e+05
    5.3756926209e-03    1.0064371094e+05
    5.3958082572e-03    1.0065850000e+05
    5.4159392603e-03    1.0066827344e+05
    5.4360851645e-03    1.0067542969e+05
    5.4562464356e-03    1.0068221094e+05
    5.4764230736e-03    1.0069110156e+05
    5.4966160096e-03    1.0069959375e+05
    5.5168238468e-03    1.0070766406e+05
    5.5370470509e-03    1.0071540625e+05
    5.5572865531e-03    1.0072078906e+05
    5.5775423534e-03    1.0072608594e+05
    5.5978130549e-03    1.0073350781e+05
    5.6181000546e-03    1.0074328906e+05
    5.6384028867e-03    1.0074418750e+05
    5.6587206200e-03    1.0076137500e+05
    5.6790532544e-03    1.0077008594e+05
    5.6994007900e-03    1.0077930469e+05
    5.7197632268e-03    1.0078933594e+05
    5.7401410304e-03    1.0080022656e+05
    5.7605337352e-03    1.0082657031e+05
    5.7809422724e-03    1.0086986719e+05
    5.8013652451e-03    1.0095685156e+05
    5.8218040504e-03    1.0114303906e+05
    5.8422577567e-03    1.0155488281e+05
    5.8627268299e-03    1.0248672656e+05
    5.8832112700e-03    1.0451457031e+05
    5.9037101455e-03    1.0852135156e+05
    5.9242248535e-03    1.1542253906e+05
    5.9447535314e-03    1.2554527344e+05
    5.9641525149e-03    1.3802929688e+05
    5.9830932878e-03    1.5003231250e+05
    6.0020405799e-03    1.6004370312e+05
    6.0210367665e-03    1.6714453125e+05
    6.0400799848e-03    1.7107842188e+05
    6.0591096990e-03    1.7232768750e+05
    6.0781282373e-03    1.7181687500e+05
    6.0972142965e-03    1.7043382812e+05
    6.1162756756e-03    1.6888017188e+05
    6.1353649944e-03    1.6748935938e+05
    6.1544459313e-03    1.6625892188e+05
    6.1734300107e-03    1.6504696875e+05
    6.1924448237e-03    1.6373996875e+05
    6.2115197070e-03    1.6227393750e+05
    6.2306127511e-03    1.6064865625e+05
    6.2497169711e-03    1.5891104688e+05
    6.2688281760e-03    1.5712145312e+05
    6.2879407778e-03    1.5534723438e+05
    6.3070552424e-03    1.5361139062e+05
    6.3261794858e-03    1.5193812500e+05
    6.3453060575e-03    1.5033767188e+05
    6.3644465990e-03    1.4877687500e+05
    6.3835908659e-03    1.4724078125e+05
    6.4027444459e-03    1.4572518750e+05
    6.4219115302e-03    1.4422650000e+05
    6.4410855994e-03    1.4274654688e+05
    6.4602680504e-03    1.4131270312e+05
    6.4794607460e-03    1.3992048438e+05
    6.4986641519e-03    1.3858371875e+05
    6.5178787336e-03    1.3729612500e+05
    6.5371058881e-03    1.3604798438e+05
    6.5563363023e-03    1.3483092188e+05
    6.5755699761e-03    1.3364907812e+05
    6.5948092379e-03    1.3249365625e+05
    6.6140629351e-03    1.3136467188e+05
    6.6333152354e-03    1.3027025781e+05
    6.6525745206e-03    1.2920758594e+05
    6.6718445159e-03    1.2817024219e+05
    6.6911154427e-03    1.2716555469e+05
    6.7104012705e-03    1.2618414844e+05
    6.7296870984e-03    1.2522625000e+05
    6.7489854991e-03    1.2428462500e+05
    6.7682852969e-03    1.2335128906e+05
    6.7875892855e-03    1.2243458594e+05
    6.8069072440e-03    1.2152471094e+05
    6.8262196146e-03    1.2063283594e+05
    6.8455408327e-03    1.1976056250e+05
    6.8648783490e-03    1.1891793750e+05
    6.8842126057e-03    1.1811197656e+05
    6.9035501219e-03    1.1735108594e+05
    6.9228983484e-03    1.1663541406e+05
    6.9422605447e-03    1.1596608594e+05
    6.9616222754e-03    1.1534418750e+05
    6.9809844717e-03    1.1476419531e+05
    7.0003494620e-03    1.1422636719e+05
    7.0197195746e-03    1.1373099219e+05
    7.0390999317e-03    1.1327053906e+05
    7.0584909990e-03    1.1284272656e+05
    7.0778946392e-03    1.1244882031e+05
    7.0973108523e-03    1.1207606250e+05
    7.1167377755e-03    1.1172668750e+05
    7.1361698210e-03    1.1139480469e+05
    7.1556069888e-03    1.1108808594e+05
    7.1750483476e-03    1.1079609375e+05
    7.1944966912e-03    1.1051782031e+05
    7.2139529511e-03    1.1026252344e+05
    7.2334166616e-03    1.1002789844e+05
    7.2528840974e-03    1.0980796875e+05
    7.2723543271e-03    1.0960853906e+05
    7.2918278165e-03    1.0942785156e+05
    7.3113050312e-03    1.0926571875e+05
    7.3307845742e-03    1.0913050000e+05
    7.3502692394e-03    1.0901835156e+05
    7.3697618209e-03    1.0893240625e+05
    7.3892641813e-03    1.0886997656e+05
    7.4087800458e-03    1.0883066406e+05
    7.4282912537e-03    1.0881847656e+05
    7.4477996677e-03    1.0882843750e+05
    7.4673094787e-03    1.0885614844e+05
    7.4868267402e-03    1.0890688281e+05
    7.5063589029e-03    1.0897582031e+05
    7.5258887373e-03    1.0905972656e+05
    7.5454111211e-03    1.0915650000e+05
    7.5649353676e-03    1.0925734375e+05
    7.5844703242e-03    1.0936016406e+05
    7.6040057465e-03    1.0945640625e+05
    7.6235276647e-03    1.0954136719e+05
    7.6430505142e-03    1.0960587500e+05
    7.6625877991e-03    1.0966467969e+05
    7.6821087860e-03    1.0970003906e+05
    7.7016241848e-03    1.0972343750e+05
    7.7211544849e-03    1.0973108594e+05
    7.7406810597e-03    1.0972769531e+05
    7.7602043748e-03    1.0970814844e+05
    7.7797495760e-03    1.0967565625e+05
    7.7992938459e-03    1.0962662500e+05
    7.8188432381e-03    1.0957250781e+05
    7.8384252265e-03    1.0951516406e+05
    7.8580006957e-03    1.0945155469e+05
    7.8775910661e-03    1.0938165625e+05
    7.8972103074e-03    1.0931621094e+05
    7.9168286175e-03    1.0924646094e+05
    7.9364804551e-03    1.0917444531e+05
    7.9561360180e-03    1.0911028906e+05
    7.9758102074e-03    1.0905267969e+05
    7.9955114052e-03    1.0900833594e+05
    8.0152126029e-03    1.0896930469e+05
    8.0349491909e-03    1.0894185156e+05
    8.0546662211e-03    1.0892442969e+05
    8.0743944272e-03    1.0891759375e+05
    8.0941170454e-03    1.0891418750e+05
    8.1138620153e-03    1.0891697656e+05
    8.1336386502e-03    1.0892996094e+05
    8.1534720957e-03    1.0893836719e+05
    8.1733558327e-03    1.0894219531e+05
    8.1932730973e-03    1.0894443750e+05
    8.2132071257e-03    1.0894077344e+05
    8.2330890000e-03    1.0892460156e+05
    8.2529615611e-03    1.0891537500e+05
    8.2727763802e-03    1.0889272656e+05
    8.2926023751e-03    1.0886236719e+05
    8.3124246448e-03    1.0883413281e+05
    8.3322748542e-03    1.0880447656e+05
    8.3521194756e-03    1.0876850781e+05
    8.3719678223e-03    1.0873559375e+05
    8.3917891607e-03    1.0870569531e+05
    8.4116021171e-03    1.0867757031e+05
    8.4314141423e-03    1.0864925000e+05
    8.4512168542e-03    1.0862525000e+05
    8.4710381925e-03    1.0860322656e+05
    8.4908353165e-03    1.0858082031e+05
    8.5106678307e-03    1.0856668750e+05
    8.5304882377e-03    1.0854994531e+05
    8.5503393784e-03    1.0853665625e+05
    8.5699046031e-03    1.0851581250e+05
    8.5892248899e-03    1.0848853125e+05
    8.6083402857e-03    1.0845339844e+05
    8.6272666231e-03    1.0840452344e+05
    8.6460309103e-03    1.0835093750e+05
    8.6646731943e-03    1.0829253906e+05
    8.6832325906e-03    1.0823138281e+05
    8.7017398328e-03    1.0816433594e+05
    8.7202098221e-03    1.0809652344e+05
    8.7386453524e-03    1.0802328906e+05
    8.7570473552e-03    1.0795250781e+05
    8.7753897533e-03    1.0788700000e+05
    8.7936492637e-03    1.0782724219e+05
    8.8118780404e-03    1.0777627344e+05
    8.8300397620e-03    1.0773118750e+05
    8.8481390849e-03    1.0769185156e+05
    8.8662039489e-03    1.0766486719e+05
    8.8842641562e-03    1.0764178906e+05
    8.9023411274e-03    1.0762871094e+05
    8.9204348624e-03    1.0762414844e+05
    8.9385388419e-03    1.0762689844e+05
    8.9566456154e-03    1.0762733594e+05
    8.9747514576e-03    1.0763285156e+05
    8.9928600937e-03    1.0763482031e+05
    9.0109808370e-03    1.0763711719e+05
    9.0291155502e-03    1.0762928125e+05
    9.0472688898e-03    1.0762497656e+05
    9.0654399246e-03    1.0761658594e+05
    9.0836230665e-03    1.0759789844e+05
    9.1018192470e-03    1.0757897656e+05
    9.1200266033e-03    1.0754466406e+05
    9.1382460669e-03    1.0751617969e+05
    9.1564757749e-03    1.0746866406e+05
    9.1747231781e-03    1.0742233594e+05
    9.1929892078e-03    1.0736641406e+05
    9.2112747952e-03    1.0730634375e+05
    9.2295790091e-03    1.0723271875e+05
    9.2479009181e-03    1.0715506250e+05
    9.2662386596e-03    1.0707158594e+05
    9.2845931649e-03    1.0698502344e+05
    9.3029672280e-03    1.0690003906e+05
    9.3213599175e-03    1.0681344531e+05
    9.3397712335e-03    1.0673335156e+05
    9.3582011759e-03    1.0665511719e+05
    9.3766497448e-03    1.0657146094e+05
    9.3951150775e-03    1.0649130469e+05
    9.4135999680e-03    1.0642080469e+05
    9.4321016222e-03    1.0634061719e+05
    9.4506228343e-03    1.0626949219e+05
    9.4691645354e-03    1.0620271094e+05
    9.4877239317e-03    1.0614136719e+05
    9.5063010231e-03    1.0608016406e+05
    9.5248948783e-03    1.0601934375e+05
    9.5435054973e-03    1.0596069531e+05
    9.5621328801e-03    1.0590808594e+05
    9.5807760954e-03    1.0585800781e+05
    9.5994332805e-03    1.0580878125e+05
    9.6181081608e-03    1.0576047656e+05
    9.6367979422e-03    1.0571350781e+05
    9.6555035561e-03    1.0566735156e+05
    9.6742231399e-03    1.0562797656e+05
    9.6929576248e-03    1.0558500000e+05
    9.7117051482e-03    1.0555341406e+05
    9.7304685041e-03    1.0551731250e+05
    9.7492448986e-03    1.0548728906e+05
    9.7680361941e-03    1.0545172656e+05
    9.7868405282e-03    1.0540967969e+05
    9.8056588322e-03    1.0537399219e+05
    9.8244920373e-03    1.0533562500e+05
    9.8433364183e-03    1.0530353125e+05
    9.8621929064e-03    1.0526814844e+05
    9.8810633644e-03    1.0522739844e+05
    9.8999459296e-03    1.0518680469e+05
    9.9188406020e-03    1.0514060156e+05
    9.9377483130e-03    1.0509541406e+05
    9.9566690624e-03    1.0504453906e+05
    9.9756028503e-03    1.0499265625e+05
    9.9945487455e-03    1.0494019531e+05
    1.0013507679e-02    1.0488697656e+05
    1.0032479651e-02    1.0482838281e+05
    1.0051463731e-02    1.0476915625e+05
    1.0070459917e-02    1.0471371094e+05
    1.0089469142e-02    1.0464371094e+05
    1.0108492337e-02    1.0457058594e+05
    1.0127528571e-02    1.0449672656e+05
    1.0146577843e-02    1.0441466406e+05
    1.0165639222e-02    1.0432700000e+05
    1.0184712708e-02    1.0423597656e+05
    1.0203798302e-02    1.0414459375e+05
    1.0222896002e-02    1.0406050000e+05
    1.0242006741e-02    1.0398418750e+05
    1.0261129588e-02    1.0391441406e+05
    1.0280264542e-02    1.0385067969e+05
    1.0299413465e-02    1.0380467969e+05
    1.0318575427e-02    1.0377294531e+05
    1.0337748565e-02    1.0375071875e+05
    1.0356934741e-02    1.0374497656e+05
    1.0376133956e-02    1.0374439844e+05
    1.0395346209e-02    1.0374010156e+05
    1.0414571501e-02    1.0374975000e+05
    1.0433809832e-02    1.0374478906e+05
    1.0453061201e-02    1.0373840625e+05
    1.0472324677e-02    1.0372299219e+05
    1.0491601191e-02    1.0370422656e+05
    1.0510892607e-02    1.0367640625e+05
    1.0530196130e-02    1.0363897656e+05
    1.0549513623e-02    1.0360125000e+05
    1.0568842292e-02    1.0356989844e+05
    1.0588183999e-02    1.0353442969e+05
    1.0607538745e-02    1.0350566406e+05
    1.0626907460e-02    1.0347156250e+05
    1.0646289214e-02    1.0344314844e+05
    1.0665684007e-02    1.0341808594e+05
    1.0685092770e-02    1.0339371094e+05
    1.0704516433e-02    1.0337746094e+05
    1.0723951273e-02    1.0335762500e+05
    1.0743400082e-02    1.0334027344e+05
    1.0762862861e-02    1.0332787500e+05
    1.0782338679e-02    1.0330718750e+05
    1.0801829398e-02    1.0328160156e+05
    1.0821334086e-02    1.0326157031e+05
    1.0840852745e-02    1.0323771094e+05
    1.0860386305e-02    1.0321785156e+05
    1.0879932903e-02    1.0319858594e+05
    1.0899493471e-02    1.0318935156e+05
    1.0919069871e-02    1.0317589844e+05
    1.0938662104e-02    1.0316464844e+05
    1.0958270170e-02    1.0315839844e+05
    1.0977892205e-02    1.0315340625e+05
    1.0997531936e-02    1.0314961719e+05
    1.1017187499e-02    1.0314472656e+05
    1.1036860757e-02    1.0314255469e+05
    1.1056551710e-02    1.0314334375e+05
    1.1076259427e-02    1.0313883594e+05
    1.1095987633e-02    1.0313310156e+05
    1.1115733534e-02    1.0312813281e+05
    1.1135498993e-02    1.0312191406e+05
    1.1155283079e-02    1.0311068750e+05
    1.1175086722e-02    1.0309971094e+05
    1.1194912717e-02    1.0308283594e+05
    1.1214758269e-02    1.0305889844e+05
    1.1234625243e-02    1.0303746094e+05
    1.1254511774e-02    1.0300547656e+05
    1.1274418794e-02    1.0298113281e+05
    1.1294347234e-02    1.0295561719e+05
    1.1314296164e-02    1.0292492969e+05
    1.1334266514e-02    1.0289678906e+05
    1.1354257353e-02    1.0286762500e+05
    1.1374268681e-02    1.0283774219e+05
    1.1394302361e-02    1.0280682031e+05
    1.1414355598e-02    1.0277503125e+05
    1.1434430256e-02    1.0274214844e+05
    1.1454525404e-02    1.0270272656e+05
    1.1474640109e-02    1.0265784375e+05
    1.1494777165e-02    1.0262500781e+05
    1.1514934711e-02    1.0259977344e+05
    1.1535113677e-02    1.0258928906e+05
    1.1555313133e-02    1.0261344531e+05
    1.1575534008e-02    1.0266841406e+05
    1.1595774442e-02    1.0277077344e+05
    1.1616035365e-02    1.0294413281e+05
    1.1636316776e-02    1.0320327344e+05
    1.1656619608e-02    1.0356947656e+05
    1.1676942930e-02    1.0406002344e+05
    1.1697287671e-02    1.0469014844e+05
    1.1717652902e-02    1.0547122656e+05
    1.1738038622e-02    1.0639243750e+05
    1.1758443899e-02    1.0741500000e+05
    1.1778870597e-02    1.0849525781e+05
    1.1799318716e-02    1.0955692969e+05
    1.1819788255e-02    1.1051921094e+05
    1.1840280145e-02    1.1130838281e+05
    1.1860790662e-02    1.1187071875e+05
    1.1881321669e-02    1.1217686719e+05
    1.1901874095e-02    1.1221686719e+05
    1.1922447011e-02    1.1201289844e+05
    1.1943042278e-02    1.1160255469e+05
    1.1963658035e-02    1.1102533594e+05
    1.1984295212e-02    1.1034632031e+05
    1.2004952878e-02    1.0960782031e+05
    1.2025631964e-02    1.0887096875e+05
    1.2046331540e-02    1.0816835156e+05
    1.2067052536e-02    1.0754930469e+05
    1.2087795883e-02    1.0702405469e+05
    1.2108558789e-02    1.0658934375e+05
    1.2129344046e-02    1.0621993750e+05
    1.2150149792e-02    1.0588091406e+05
    1.2170976959e-02    1.0554600781e+05
    1.2191825546e-02    1.0518011719e+05
    1.2212695554e-02    1.0476664844e+05
    1.2233586982e-02    1.0430192969e+05
    1.2254500762e-02    1.0378028906e+05
    1.2275436893e-02    1.0323792969e+05
    1.2296394445e-02    1.0266996094e+05
    1.2317374349e-02    1.0210527344e+05
    1.2338375673e-02    1.0155958594e+05
    1.2359398417e-02    1.0104691406e+05
    1.2380442582e-02    1.0058265625e+05
    1.2401508167e-02    1.0017303125e+05
    1.2422595173e-02    9.9816843750e+04
    1.2443703599e-02    9.9504835938e+04
    1.2464834377e-02    9.9229343750e+04
    1.2485986575e-02    9.8983617188e+04
    1.2507158332e-02    9.8760007812e+04
    1.2528351508e-02    9.8563218750e+04
    1.2549565174e-02    9.8389648438e+04
    1.2570801191e-02    9.8239437500e+04
    1.2592058629e-02    9.8119156250e+04
    1.2613337487e-02    9.8024210938e+04
    1.2634636834e-02    9.7949656250e+04
    1.2655957602e-02    9.7898148438e+04
    1.2677297927e-02    9.7872117188e+04
    1.2698660605e-02    9.7878789062e+04
    1.2720043771e-02    9.7911289062e+04
    1.2741449289e-02    9.7965968750e+04
    1.2762876227e-02    9.8039054688e+04
    1.2784325518e-02    9.8115726562e+04
    1.2805794366e-02    9.8197273438e+04
    1.2827285565e-02    9.8275281250e+04
    1.2848797254e-02    9.8353429688e+04
    1.2870330364e-02    9.8426632812e+04
    1.2891885825e-02    9.8494601562e+04
    1.2913462706e-02    9.8573445312e+04
    1.2935061008e-02    9.8672835938e+04
    1.2956679799e-02    9.8790960938e+04
    1.2978320010e-02    9.8949210938e+04
    1.2999981642e-02    9.9143367188e+04
    1.3021663763e-02    9.9374125000e+04
    1.3043368235e-02    9.9630250000e+04
    1.3065092266e-02    9.9900695312e+04
    1.3086837716e-02    1.0016788281e+05
    1.3108605519e-02    1.0042346875e+05
    1.3130392879e-02    1.0064903125e+05
    1.3152201660e-02    1.0083622656e+05
    1.3174032792e-02    1.0098235156e+05
    1.3195885345e-02    1.0108546094e+05
    1.3217759319e-02    1.0115550781e+05
    1.3239653781e-02    1.0119621094e+05
    1.3261569664e-02    1.0122315625e+05
    1.3283506967e-02    1.0123439844e+05
    1.3305463828e-02    1.0124447656e+05
    1.3327440247e-02    1.0125028906e+05
    1.3349435292e-02    1.0126803906e+05
    1.3371448033e-02    1.0129661719e+05
    1.3393475674e-02    1.0132589844e+05
    1.3415516354e-02    1.0136725000e+05
    1.3437564485e-02    1.0140735156e+05
    1.3459613547e-02    1.0146453125e+05
    1.3481658883e-02    1.0151894531e+05
    1.3503690250e-02    1.0157267969e+05
    1.3525702059e-02    1.0162546094e+05
    1.3547683135e-02    1.0167283594e+05
    1.3569628820e-02    1.0171066406e+05
    1.3591531664e-02    1.0174815625e+05
    1.3613392599e-02    1.0177335156e+05
    1.3635210693e-02    1.0179697656e+05
    1.3656994328e-02    1.0180239844e+05
    1.3678749092e-02    1.0180553906e+05
    1.3700488023e-02    1.0180150781e+05
    1.3722228818e-02    1.0179065625e+05
    1.3743981719e-02    1.0177877344e+05
    1.3765762560e-02    1.0176316406e+05
    1.3787578791e-02    1.0175171094e+05
    1.3809437864e-02    1.0173222656e+05
    1.3831341639e-02    1.0171757031e+05
    1.3853288256e-02    1.0169796094e+05
    1.3875273056e-02    1.0168383594e+05
    1.3897285797e-02    1.0167431250e+05
    1.3919321820e-02    1.0166062500e+05
    1.3941374607e-02    1.0163934375e+05
    1.3963440433e-02    1.0161614844e+05
    1.3985517435e-02    1.0158672656e+05
    1.4007603750e-02    1.0155860156e+05
    1.4029704034e-02    1.0152677344e+05
    1.4051820152e-02    1.0149753906e+05
    1.4073957689e-02    1.0146066406e+05
    1.4096121304e-02    1.0142121094e+05
    1.4118315652e-02    1.0138131250e+05
    1.4140545391e-02    1.0134118750e+05
    1.4162814245e-02    1.0130190625e+05
    1.4185124077e-02    1.0125965625e+05
    1.4207473956e-02    1.0122813281e+05
    1.4229862019e-02    1.0119607031e+05
    1.4252286404e-02    1.0115916406e+05
    1.4274741523e-02    1.0112884375e+05
    1.4297228307e-02    1.0109403906e+05
    1.4319745824e-02    1.0105577344e+05
    1.4342290349e-02    1.0102583594e+05
    1.4364863746e-02    1.0098607031e+05
    1.4387467876e-02    1.0095478906e+05
    1.4410103671e-02    1.0091877344e+05
    1.4432771131e-02    1.0088212500e+05
    1.4455472119e-02    1.0084939844e+05
    1.4478209428e-02    1.0081164844e+05
    1.4500979334e-02    1.0077359375e+05
    1.4523783699e-02    1.0074062500e+05
    1.4546621591e-02    1.0071730469e+05
    1.4569494873e-02    1.0068603125e+05
    1.4592399821e-02    1.0065564844e+05
    1.4615339227e-02    1.0062692969e+05
    1.4638305642e-02    1.0060685156e+05
    1.4661304653e-02    1.0059436719e+05
    1.4684336260e-02    1.0058178906e+05
    1.4707398601e-02    1.0057202344e+05
    1.4730494469e-02    1.0056521875e+05
    1.4753622934e-02    1.0056388281e+05
    1.4776783995e-02    1.0057383594e+05
    1.4799979515e-02    1.0059303906e+05
    1.4823205769e-02    1.0060816406e+05
    1.4846466482e-02    1.0061567969e+05
    1.4869757928e-02    1.0063384375e+05
    1.4893081971e-02    1.0065614844e+05
    1.4916437678e-02    1.0067960156e+05
    1.4939822257e-02    1.0070321094e+05
    1.4963239431e-02    1.0072300781e+05
    1.4986685477e-02    1.0073781250e+05
    1.5010161325e-02    1.0075014844e+05
    1.5033668838e-02    1.0076016406e+05
    1.5057205223e-02    1.0077649219e+05
    1.5080772340e-02    1.0078460156e+05
    1.5104367398e-02    1.0079378906e+05
    1.5127992257e-02    1.0080886719e+05
    1.5151646920e-02    1.0081657031e+05
    1.5175330453e-02    1.0083552344e+05
    1.5199041925e-02    1.0084727344e+05
    1.5222782269e-02    1.0086371094e+05
    1.5246548690e-02    1.0088414844e+05
    1.5270343982e-02    1.0090263281e+05
    1.5294168144e-02    1.0091949219e+05
    1.5318016522e-02    1.0092925781e+05
    1.5341891907e-02    1.0094483594e+05
    1.5365792438e-02    1.0095739844e+05
    1.5389721841e-02    1.0097185156e+05
    1.5413676389e-02    1.0098344531e+05
    1.5437657945e-02    1.0099091406e+05
    1.5461664647e-02    1.0099883594e+05
    1.5485695563e-02    1.0100864844e+05
    1.5509752557e-02    1.0101755469e+05
    1.5533835627e-02    1.0103635156e+05
    1.5557944775e-02    1.0106622656e+05
    1.5582079068e-02    1.0108922656e+05
    1.5606240369e-02    1.0111369531e+05
    1.5630424023e-02    1.0114886719e+05
    1.5654634684e-02    1.0117605469e+05
    1.5678871423e-02    1.0121371875e+05
    1.5703132376e-02    1.0124314844e+05
    1.5727419406e-02    1.0126341406e+05
    1.5751728788e-02    1.0128802344e+05
    1.5776060522e-02    1.0131313281e+05
    1.5800418332e-02    1.0133796094e+05
    1.5824800357e-02    1.0136163281e+05
    1.5849204734e-02    1.0137908594e+05
    1.5873633325e-02    1.0139050781e+05
    1.5898084268e-02    1.0139862500e+05
    1.5922557563e-02    1.0141286719e+05
    1.5947058797e-02    1.0142171094e+05
    1.5971582383e-02    1.0142559375e+05
    1.5996130183e-02    1.0143246875e+05
    1.6020702198e-02    1.0143239844e+05
    1.6045298427e-02    1.0143556250e+05
    1.6069920734e-02    1.0144210156e+05
    1.6094569117e-02    1.0144364844e+05
    1.6119243577e-02    1.0144475781e+05
    1.6143942252e-02    1.0144074219e+05
    1.6168667004e-02    1.0144387500e+05
    1.6193419695e-02    1.0144189844e+05
    1.6218200326e-02    1.0144446875e+05
    1.6243007034e-02    1.0145093750e+05
    1.6267839819e-02    1.0145202344e+05
    1.6292702407e-02    1.0145789844e+05
    1.6317596659e-02    1.0146403906e+05
    1.6342513263e-02    1.0147225000e+05
    1.6367461532e-02    1.0148497656e+05
    1.6392435879e-02    1.0150112500e+05
    1.6417443752e-02    1.0151815625e+05
    1.6442479566e-02    1.0153602344e+05
    1.6467543319e-02    1.0155468750e+05
    1.6492636874e-02    1.0157003906e+05
    1.6517756507e-02    1.0159392969e+05
    1.6542907804e-02    1.0160922656e+05
    1.6568088904e-02    1.0162692969e+05
    1.6593271866e-02    1.0164050781e+05
    1.6618426889e-02    1.0166214844e+05
    1.6643559560e-02    1.0167583594e+05
    1.6668669879e-02    1.0168939844e+05
    1.6693757847e-02    1.0170580469e+05
    1.6718825325e-02    1.0171975000e+05
    1.6743874177e-02    1.0172958594e+05
    1.6768900678e-02    1.0174321094e+05
    1.6793908551e-02    1.0174758594e+05
    1.6818899661e-02    1.0175452344e+05
    1.6843874007e-02    1.0176053125e+05
    1.6868829727e-02    1.0176532031e+05
    1.6893770546e-02    1.0176291406e+05
    1.6918692738e-02    1.0175871094e+05
    1.6943598166e-02    1.0174840625e+05
    1.6968490556e-02    1.0173983594e+05
    1.6993366182e-02    1.0173122656e+05
    1.7018226907e-02    1.0172739844e+05
    1.7043072730e-02    1.0171433594e+05
    1.7067901790e-02    1.0169740625e+05
    1.7092714086e-02    1.0168512500e+05
    1.7117511481e-02    1.0167428906e+05
    1.7142292112e-02    1.0166821094e+05
    1.7167057842e-02    1.0166941406e+05
    1.7191808671e-02    1.0166802344e+05
    1.7216544598e-02    1.0167214844e+05
    1.7241263762e-02    1.0167562500e+05
    1.7265968025e-02    1.0167872656e+05
    1.7290659249e-02    1.0168588281e+05
    1.7315333709e-02    1.0168924219e+05
    1.7339993268e-02    1.0170094531e+05
    1.7364639789e-02    1.0171333594e+05
    1.7389267683e-02    1.0173030469e+05
    1.7413880676e-02    1.0174575000e+05
    1.7438478768e-02    1.0176158594e+05
    1.7463061959e-02    1.0177933594e+05
    1.7487626523e-02    1.0181208594e+05
    1.7512176186e-02    1.0185965625e+05
    1.7536709085e-02    1.0191096094e+05
    1.7561223358e-02    1.0197566406e+05
    1.7585720867e-02    1.0204597656e+05
    1.7610201612e-02    1.0214135156e+05
    1.7634663731e-02    1.0224986719e+05
    1.7659107223e-02    1.0237094531e+05
    1.7683532089e-02    1.0249460156e+05
    1.7707940191e-02    1.0262885156e+05
    1.7732329667e-02    1.0274553125e+05
    1.7756698653e-02    1.0285553125e+05
    1.7781050876e-02    1.0294655469e+05
    1.7805384472e-02    1.0300862500e+05
    1.7829699442e-02    1.0304016406e+05
    1.7853999510e-02    1.0303044531e+05
    1.7878280953e-02    1.0298714844e+05
    1.7902545631e-02    1.0290824219e+05
    1.7926793545e-02    1.0278002344e+05
    1.7951028422e-02    1.0261518750e+05
    1.7975246534e-02    1.0241185156e+05
    1.7999447882e-02    1.0217871875e+05
    1.8023636192e-02    1.0192478125e+05
    1.8047811463e-02    1.0165534375e+05
    1.8071975559e-02    1.0139935156e+05
    1.8096126616e-02    1.0115650000e+05
    1.8120266497e-02    1.0094067969e+05
    1.8144397065e-02    1.0075461719e+05
    1.8168520182e-02    1.0060327344e+05
    1.8192630261e-02    1.0047615625e+05
    1.8216732889e-02    1.0038671094e+05
    1.8240824342e-02    1.0032021094e+05
    1.8264908344e-02    1.0028228906e+05
    1.8288983032e-02    1.0026525781e+05
    1.8313048407e-02    1.0027787500e+05
    1.8337102607e-02    1.0031534375e+05
    1.8361147493e-02    1.0037803906e+05
    1.8385183066e-02    1.0045815625e+05
    1.8409207463e-02    1.0054403906e+05
    1.8433224410e-02    1.0065308594e+05
    1.8457230181e-02    1.0076437500e+05
    1.8481226638e-02    1.0088191406e+05
    1.8505210057e-02    1.0100889844e+05
    1.8529184163e-02    1.0113585156e+05
    1.8553148955e-02    1.0126339844e+05
    1.8577100709e-02    1.0139759375e+05
    1.8601041287e-02    1.0152655469e+05
    1.8624972552e-02    1.0165233594e+05
    1.8648892641e-02    1.0176990625e+05
    1.8672801554e-02    1.0187962500e+05
    1.8696699291e-02    1.0198296094e+05
    1.8720587716e-02    1.0207885156e+05
    1.8744463101e-02    1.0216216406e+05
    1.8768329173e-02    1.0224978906e+05
    1.8792184070e-02    1.0232425000e+05
    1.8816027790e-02    1.0240189844e+05
    1.8839860335e-02    1.0246460156e+05
    1.8863683566e-02    1.0252227344e+05
    1.8887493759e-02    1.0256960156e+05
    1.8911294639e-02    1.0261080469e+05
    1.8935086206e-02    1.0264706250e+05
    1.8958866596e-02    1.0267313281e+05
    1.8982635811e-02    1.0269091406e+05
    1.9006397575e-02    1.0270927344e+05
    1.9030146301e-02    1.0271283594e+05
    1.9053885713e-02    1.0271759375e+05
    1.9077615812e-02    1.0272225781e+05
    1.9101334736e-02    1.0272632031e+05
    1.9125042483e-02    1.0273103906e+05
    1.9148740917e-02    1.0273062500e+05
    1.9172428176e-02    1.0273446875e+05
    1.9196104258e-02    1.0273050781e+05
    1.9219771028e-02    1.0272664844e+05
    1.9243424758e-02    1.0271832031e+05
    1.9267069176e-02    1.0270210156e+05
    1.9290700555e-02    1.0268268750e+05
    1.9314322621e-02    1.0266028906e+05
    1.9337931648e-02    1.0262965625e+05
    1.9361529499e-02    1.0258947656e+05
    1.9385114312e-02    1.0254877344e+05
    1.9408687949e-02    1.0251025000e+05
    1.9432250410e-02    1.0247836719e+05
    1.9455801696e-02    1.0243490625e+05
    1.9479339942e-02    1.0239277344e+05
    1.9502865151e-02    1.0235389844e+05
    1.9526379183e-02    1.0231866406e+05
    1.9549878314e-02    1.0229107031e+05
    1.9573366269e-02    1.0226900781e+05
    1.9596841186e-02    1.0224442969e+05
    1.9620303065e-02    1.0222564844e+05
    1.9643751904e-02    1.0220453125e+05
    1.9667187706e-02    1.0219308594e+05
    1.9690606743e-02    1.0218258594e+05
    1.9714014605e-02    1.0217319531e+05
    1.9737409428e-02    1.0216017969e+05
    1.9760791212e-02    1.0214924219e+05
    1.9784159958e-02    1.0214285156e+05
    1.9807513803e-02    1.0213428906e+05
    1.9830854610e-02    1.0212678906e+05
    1.9854182377e-02    1.0211886719e+05
    1.9877497107e-02    1.0211035156e+05
    1.9900798798e-02    1.0210385156e+05
    1.9924087450e-02    1.0210233594e+05
    1.9947361201e-02    1.0209161719e+05
    1.9970623776e-02    1.0209030469e+05
    1.9993871450e-02    1.0207962500e+05
    2.0017107949e-02    1.0206933594e+05
    2.0040329546e-02    1.0206171094e+05
    2.0063538104e-02    1.0205453906e+05
    2.0086731762e-02    1.0205140625e+05
    2.0109914243e-02    1.0204771875e+05
    2.0133081824e-02    1.0204503906e+05
    2.0156236365e-02    1.0204436719e+05
    2.0179376006e-02    1.0203980469e+05
    2.0202504471e-02    1.0202978125e+05
    2.0225618035e-02    1.0201591406e+05
    2.0248720422e-02    1.0200883594e+05
    2.0271807909e-02    1.0201139844e+05
    2.0294882357e-02    1.0201466406e+05
    2.0317947492e-02    1.0200908594e+05
    2.0340997726e-02    1.0200339844e+05
    2.0364036784e-02    1.0199728906e+05
    2.0387060940e-02    1.0198506250e+05
    2.0410073921e-02    1.0197750781e+05
    2.0433073863e-02    1.0197550781e+05
    2.0456060767e-02    1.0196897656e+05
    2.0479036495e-02    1.0197250000e+05
    2.0501999184e-02    1.0196721094e+05
    2.0524948835e-02    1.0196216406e+05
    2.0547885448e-02    1.0195782031e+05
    2.0570809022e-02    1.0196057031e+05
    2.0593719557e-02    1.0195983594e+05
    2.0616617054e-02    1.0196625000e+05
    2.0639499649e-02    1.0196337500e+05
    2.0662369207e-02    1.0196058594e+05
    2.0685223863e-02    1.0195813281e+05
    2.0708063617e-02    1.0196610156e+05
    2.0730890334e-02    1.0196557031e+05
    2.0753700286e-02    1.0197436719e+05
    2.0776495337e-02    1.0197414844e+05
    2.0799275488e-02    1.0197352344e+05
    2.0822042599e-02    1.0197290625e+05
    2.0844791085e-02    1.0197268750e+05
    2.0867524669e-02    1.0198261719e+05
    2.0890241489e-02    1.0198428906e+05
    2.0912945271e-02    1.0199180469e+05
    2.0935632288e-02    1.0198905469e+05
    2.0958306268e-02    1.0199087500e+05
    2.0980965346e-02    1.0199283594e+05
    2.1003607661e-02    1.0199753906e+05
    2.1026238799e-02    1.0200664844e+05
    2.1048855036e-02    1.0200908594e+05
    2.1071458235e-02    1.0201103125e+05
    2.1094048396e-02    1.0201278906e+05
    2.1116625518e-02    1.0201094531e+05
    2.1139191464e-02    1.0201753125e+05
    2.1161744371e-02    1.0202343750e+05
    2.1184286103e-02    1.0203355469e+05
    2.1206818521e-02    1.0203703125e+05
    2.1229337901e-02    1.0204096094e+05
    2.1251846105e-02    1.0204480469e+05
    2.1274344996e-02    1.0204599219e+05
    2.1296832711e-02    1.0205072656e+05
    2.1319312975e-02    1.0205341406e+05
    2.1341778338e-02    1.0205650000e+05
    2.1364232525e-02    1.0206035156e+05
    2.1386675537e-02    1.0205994531e+05
    2.1409107372e-02    1.0206353125e+05
    2.1431528032e-02    1.0206169531e+05
    2.1453931928e-02    1.0207360156e+05
    2.1476324648e-02    1.0207144531e+05
    2.1498700604e-02    1.0207028906e+05
    2.1521063522e-02    1.0207271875e+05
    2.1543409675e-02    1.0207556250e+05
    2.1565740928e-02    1.0208387500e+05
    2.1588053554e-02    1.0208225000e+05
    2.1610351279e-02    1.0208566406e+05
    2.1632634103e-02    1.0209421094e+05
    2.1654898301e-02    1.0210185156e+05
    2.1677147597e-02    1.0210556250e+05
    2.1699378267e-02    1.0210925781e+05
    2.1721594036e-02    1.0211318750e+05
    2.1743793041e-02    1.0211721875e+05
    2.1765975282e-02    1.0212158594e+05
    2.1788140759e-02    1.0212641406e+05
    2.1810289472e-02    1.0213133594e+05
    2.1832419559e-02    1.0213592969e+05
    2.1854531020e-02    1.0213993750e+05
    2.1876627579e-02    1.0214350000e+05
    2.1898705512e-02    1.0214263281e+05
    2.1920768544e-02    1.0214558594e+05
    2.1942811087e-02    1.0214311719e+05
    2.1964838728e-02    1.0214519531e+05
    2.1986849606e-02    1.0214153906e+05
    2.2008845583e-02    1.0213816406e+05
    2.2030822933e-02    1.0213258594e+05
    2.2052785382e-02    1.0212697656e+05
    2.2074732929e-02    1.0212419531e+05
    2.2096665576e-02    1.0211536719e+05
    2.2118583322e-02    1.0210692969e+05
    2.2140489891e-02    1.0209592969e+05
    2.2162377834e-02    1.0208171875e+05
    2.2184254602e-02    1.0206989844e+05
    2.2206118330e-02    1.0205047656e+05
    2.2227969021e-02    1.0203962500e+05
    2.2249806672e-02    1.0203162500e+05
    2.2271629423e-02    1.0201800781e+05
    2.2293440998e-02    1.0200600000e+05
    2.2315241396e-02    1.0198364844e+05
    2.2337028757e-02    1.0196911719e+05
    2.2358803079e-02    1.0194502344e+05
    2.2380566224e-02    1.0193008594e+05
    2.2402318195e-02    1.0192331250e+05
    2.2424057126e-02    1.0191228906e+05
    2.2445784882e-02    1.0189891406e+05
    2.2467501462e-02    1.0189186719e+05
    2.2489206865e-02    1.0188358594e+05
    2.2510899231e-02    1.0188653125e+05
    2.2532582283e-02    1.0188296875e+05
    2.2554252297e-02    1.0189152344e+05
    2.2575911134e-02    1.0190858594e+05
    2.2597560659e-02    1.0191943750e+05
    2.2619199008e-02    1.0193646875e+05
    2.2640828043e-02    1.0195058594e+05
    2.2662445903e-02    1.0197160156e+05
    2.2684050724e-02    1.0199505469e+05
    2.2705646232e-02    1.0201997656e+05
    2.2727232426e-02    1.0204660156e+05
    2.2748809308e-02    1.0207482031e+05
    2.2770375013e-02    1.0210390625e+05
    2.2791929543e-02    1.0212453906e+05
    2.2813472897e-02    1.0214893750e+05
    2.2835006937e-02    1.0217446094e+05
    2.2856531665e-02    1.0219809375e+05
    2.2878047079e-02    1.0221689844e+05
    2.2899549454e-02    1.0222985156e+05
    2.2921044379e-02    1.0224755469e+05
    2.2942528129e-02    1.0227407031e+05
    2.2964000702e-02    1.0229096094e+05
    2.2985465825e-02    1.0230659375e+05
    2.3006917909e-02    1.0231103125e+05
    2.3028360680e-02    1.0232309375e+05
    2.3049792275e-02    1.0232834375e+05
    2.3071214557e-02    1.0233814844e+05
    2.3092625663e-02    1.0234418750e+05
    2.3114029318e-02    1.0234706250e+05
    2.3135419935e-02    1.0235146875e+05
    2.3156799376e-02    1.0235655469e+05
    2.3178169504e-02    1.0235157031e+05
    2.3199530318e-02    1.0235507031e+05
    2.3220879957e-02    1.0235739844e+05
    2.3242218420e-02    1.0235864844e+05
    2.3263547570e-02    1.0235564844e+05
    2.3284865543e-02    1.0234724219e+05
    2.3306174204e-02    1.0234383594e+05
    2.3327469826e-02    1.0233430469e+05
    2.3348756135e-02    1.0233403125e+05
    2.3370031267e-02    1.0232815625e+05
    2.3391297087e-02    1.0232111719e+05
    2.3412553594e-02    1.0230739844e+05
    2.3433798924e-02    1.0229402344e+05
    2.3455033079e-02    1.0227907031e+05
    2.3476256058e-02    1.0226902344e+05
    2.3497469723e-02    1.0226461719e+05
    2.3518672213e-02    1.0225553906e+05
    2.3539865389e-02    1.0225264844e+05
    2.3561049253e-02    1.0224562500e+05
    2.3582221940e-02    1.0223946875e+05
    2.3603385314e-02    1.0223933594e+05
    2.3624535650e-02    1.0223516406e+05
    2.3645676672e-02    1.0223259375e+05
    2.3666808382e-02    1.0223333594e+05
    2.3687927052e-02    1.0223350781e+05
    2.3709038273e-02    1.0223231250e+05
    2.3730138317e-02    1.0223840625e+05
    2.3751227185e-02    1.0223525781e+05
    2.3772306740e-02    1.0223386719e+05
    2.3793375120e-02    1.0222783594e+05
    2.3814432323e-02    1.0222158594e+05
    2.3835480213e-02    1.0221452344e+05
    2.3856516927e-02    1.0220114844e+05
    2.3877544329e-02    1.0218162500e+05
    2.3898560554e-02    1.0215971094e+05
    2.3919565603e-02    1.0213584375e+05
    2.3940561339e-02    1.0210722656e+05
    2.3961545900e-02    1.0207100781e+05
    2.3982519284e-02    1.0203016406e+05
    2.4003483355e-02    1.0199614844e+05
    2.4024436250e-02    1.0196011719e+05
    2.4045377970e-02    1.0192596094e+05
    2.4066310376e-02    1.0188832031e+05
    2.4087233469e-02    1.0185332031e+05
    2.4108145386e-02    1.0182939844e+05
    2.4129044265e-02    1.0181299219e+05
    2.4149935693e-02    1.0180175781e+05
    2.4170814082e-02    1.0180178906e+05
    2.4191683158e-02    1.0180977344e+05
    2.4212542921e-02    1.0182732031e+05
    2.4233391508e-02    1.0184946875e+05
    2.4254228920e-02    1.0187946094e+05
    2.4275057018e-02    1.0191110156e+05
    2.4295873940e-02    1.0194700000e+05
    2.4316681549e-02    1.0198566406e+05
    2.4337477982e-02    1.0203217969e+05
    2.4358265102e-02    1.0207338281e+05
    2.4379042909e-02    1.0211506250e+05
    2.4399809539e-02    1.0215346094e+05
    2.4420566857e-02    1.0218608594e+05
    2.4441312999e-02    1.0222575000e+05
    2.4462047964e-02    1.0226138281e+05
    2.4482775480e-02    1.0229175781e+05
    2.4503491819e-02    1.0232153125e+05
    2.4524198845e-02    1.0234725781e+05
    2.4544894695e-02    1.0236847656e+05
    2.4565581232e-02    1.0239336719e+05
    2.4586258456e-02    1.0240827344e+05
    2.4606924504e-02    1.0242616406e+05
    2.4627581239e-02    1.0244060156e+05
    2.4648228660e-02    1.0244844531e+05
    2.4668866768e-02    1.0245699219e+05
    2.4689495564e-02    1.0246396094e+05
    2.4710113183e-02    1.0246950000e+05
    2.4730721489e-02    1.0247128906e+05
    2.4751318619e-02    1.0246602344e+05
    2.4771906435e-02    1.0246605469e+05
    2.4792486802e-02    1.0246505469e+05
    2.4813055992e-02    1.0246717969e+05
    2.4833614007e-02    1.0245969531e+05
    2.4854162708e-02    1.0245493750e+05
    2.4874702096e-02    1.0243914844e+05
    2.4895232171e-02    1.0243066406e+05
    2.4915752932e-02    1.0241122656e+05
    2.4936262518e-02    1.0239933594e+05
    2.4956764653e-02    1.0238614844e+05
    2.4977253750e-02    1.0238164844e+05
    2.4997735396e-02    1.0236771875e+05
    2.5018205866e-02    1.0234409375e+05
    2.5038668886e-02    1.0233160156e+05
    2.5059120730e-02    1.0232172656e+05
    2.5079563260e-02    1.0230469531e+05
    2.5099996477e-02    1.0228989844e+05
    2.5120420381e-02    1.0227888281e+05
    2.5140833110e-02    1.0227056250e+05
    2.5161236525e-02    1.0226011719e+05
    2.5181630626e-02    1.0224692969e+05
    2.5202017277e-02    1.0223562500e+05
    2.5222390890e-02    1.0222630469e+05
    2.5242757052e-02    1.0221696875e+05
    2.5263112038e-02    1.0220774219e+05
    2.5283459574e-02    1.0220603906e+05
    2.5303795934e-02    1.0219962500e+05
    2.5324124843e-02    1.0218382031e+05
    2.5344440714e-02    1.0217302344e+05
    2.5364749134e-02    1.0217341406e+05
    2.5385048240e-02    1.0216489844e+05
    2.5405339897e-02    1.0216605469e+05
    2.5425618514e-02    1.0216800781e+05
    2.5445887819e-02    1.0216142969e+05
    2.5466147810e-02    1.0216224219e+05
    2.5486400351e-02    1.0215938281e+05
    2.5506639853e-02    1.0215410156e+05
    2.5526873767e-02    1.0214966406e+05
    2.5547094643e-02    1.0215021094e+05
    2.5567308068e-02    1.0215110156e+05
    2.5587510318e-02    1.0215200000e+05
    2.5607703254e-02    1.0215418750e+05
    2.5627886876e-02    1.0215177344e+05
    2.5648061186e-02    1.0214940625e+05
    2.5668226182e-02    1.0215282031e+05
    2.5688380003e-02    1.0215531250e+05
    2.5708526373e-02    1.0215446094e+05
    2.5728661567e-02    1.0215885156e+05
    2.5748789310e-02    1.0216014844e+05
    2.5768904015e-02    1.0216160156e+05
    2.5789011270e-02    1.0216110156e+05
    2.5809109211e-02    1.0216080469e+05
    2.5829195976e-02    1.0216102344e+05
    2.5849273428e-02    1.0217087500e+05
    2.5869343430e-02    1.0217202344e+05
    2.5889402255e-02    1.0217363281e+05
    2.5909451768e-02    1.0218496094e+05
    2.5929493830e-02    1.0218507031e+05
    2.5949522853e-02    1.0217964844e+05
    2.5969544426e-02    1.0219008594e+05
    2.5989556685e-02    1.0218917969e+05
    2.6009559631e-02    1.0219202344e+05
    2.6029553264e-02    1.0219261719e+05
    2.6049537584e-02    1.0219321094e+05
    2.6069512591e-02    1.0219411719e+05
    2.6089478284e-02    1.0219546094e+05
    2.6109432802e-02    1.0219696875e+05
    2.6129379869e-02    1.0219853125e+05
    2.6149315760e-02    1.0220012500e+05
    2.6169244200e-02    1.0220130469e+05
    2.6189163327e-02    1.0220247656e+05
    2.6209073141e-02    1.0220335156e+05
    2.6228975505e-02    1.0220409375e+05
    2.6248866692e-02    1.0220466406e+05
    2.6268748567e-02    1.0220103906e+05
    2.6288621128e-02    1.0219884375e+05
    2.6308484375e-02    1.0220096094e+05
    2.6328338310e-02    1.0220436719e+05
    2.6348184794e-02    1.0219880469e+05
    2.6368021965e-02    1.0220468750e+05
    2.6387847960e-02    1.0220950781e+05
    2.6407664642e-02    1.0221028906e+05
    2.6427472010e-02    1.0220193750e+05
    2.6447271928e-02    1.0220547656e+05
    2.6467062533e-02    1.0220925781e+05
    2.6486843824e-02    1.0221428906e+05
    2.6506617665e-02    1.0220586719e+05
    2.6526380330e-02    1.0220666406e+05
    2.6546133682e-02    1.0220757031e+05
    2.6565877721e-02    1.0221375781e+05
    2.6585612446e-02    1.0221483594e+05
    2.6605339721e-02    1.0221047656e+05
    2.6625057682e-02    1.0221671875e+05
    2.6644766331e-02    1.0221263281e+05
    2.6664465666e-02    1.0221358594e+05
    2.6684155688e-02    1.0221708594e+05
    2.6703836396e-02    1.0221792969e+05
    2.6723509654e-02    1.0221621094e+05
    2.6743173599e-02    1.0221728125e+05
    2.6762828231e-02    1.0222109375e+05
    2.6782475412e-02    1.0222499219e+05
    2.6802113280e-02    1.0222119531e+05
    2.6821739972e-02    1.0222721875e+05
    2.6841359213e-02    1.0223035156e+05
    2.6860967278e-02    1.0222922656e+05
    2.6880569756e-02    1.0222486719e+05
    2.6900164783e-02    1.0222533594e+05
    2.6919748634e-02    1.0222828906e+05
    2.6939325035e-02    1.0223139844e+05
    2.6958892122e-02    1.0222697656e+05
    2.6978449896e-02    1.0222765625e+05
    2.6997998357e-02    1.0222839844e+05
    2.7017539367e-02    1.0222887500e+05
    2.7037071064e-02    1.0223205469e+05
    2.7056595311e-02    1.0223242969e+05
    2.7076110244e-02    1.0223000000e+05
    2.7095617726e-02    1.0222978906e+05
    2.7115115896e-02    1.0222508594e+05
    2.7134604752e-02    1.0222428125e+05
    2.7154086158e-02    1.0222744531e+05
    2.7173558250e-02    1.0222463281e+05
    2.7193021029e-02    1.0222158594e+05
    2.7212476358e-02    1.0222055469e+05
    2.7231922373e-02    1.0222405469e+05
    2.7251357213e-02    1.0222361719e+05
    2.7270786464e-02    1.0221859375e+05
    2.7290204540e-02    1.0221635156e+05
    2.7309613302e-02    1.0222285156e+05
    2.7329014614e-02    1.0222309375e+05
    2.7348404750e-02    1.0222317969e+05
    2.7367785573e-02    1.0222328906e+05
    2.7387158945e-02    1.0222314844e+05
    2.7406521142e-02    1.0222296094e+05
    2.7425874025e-02    1.0222278125e+05
    2.7445219457e-02    1.0222266406e+05
    2.7464553714e-02    1.0222255469e+05
    2.7483878657e-02    1.0222287500e+05
    2.7503194287e-02    1.0222316406e+05
    2.7522502467e-02    1.0222364844e+05
    2.7541799471e-02    1.0222664844e+05
    2.7561087161e-02    1.0222462500e+05
    2.7580365539e-02    1.0222527344e+05
    2.7599634603e-02    1.0222608594e+05
    2.7618894354e-02    1.0223185156e+05
    2.7638144791e-02    1.0222967969e+05
    2.7657385916e-02    1.0223150781e+05
    2.7676619589e-02    1.0222971875e+05
    2.7695843950e-02    1.0222767969e+05
    2.7715058997e-02    1.0222769531e+05
    2.7734262869e-02    1.0222785156e+05
    2.7753459290e-02    1.0222814844e+05
    2.7772648260e-02    1.0222864844e+05
    2.7791827917e-02    1.0222902344e+05
    2.7810998261e-02    1.0222914844e+05
    2.7830159292e-02    1.0222919531e+05
    2.7849311009e-02    1.0222922656e+05
    2.7868455276e-02    1.0222903906e+05
    2.7887590230e-02    1.0222886719e+05
    2.7906717733e-02    1.0222857031e+05
    2.7925835922e-02    1.0222830469e+05
    2.7944946662e-02    1.0222792969e+05
    2.7964048088e-02    1.0222752344e+05
    2.7983140200e-02    1.0222697656e+05
    2.8002224863e-02    1.0222672656e+05
    2.8021300212e-02    1.0222647656e+05
    2.8040368110e-02    1.0222627344e+05
    2.8059426695e-02    1.0222612500e+05
    2.8078475967e-02    1.0222596094e+05
    2.8097519651e-02    1.0222597656e+05
    2.8116554022e-02    1.0222600000e+05
    2.8135580942e-02    1.0222610156e+05
    2.8154598549e-02    1.0222634375e+05
    2.8173606843e-02    1.0222647656e+05
    2.8192607686e-02    1.0223183594e+05
    2.8211599216e-02    1.0222688281e+05
    2.8230583295e-02    1.0222664844e+05
    2.8249559924e-02    1.0222624219e+05
    2.8268527240e-02    1.0222608594e+05
    2.8287487105e-02    1.0222617969e+05
    2.8306435794e-02    1.0222628906e+05
    2.8325378895e-02    1.0222625781e+05
    2.8344312683e-02    1.0222616406e+05
    2.8363237157e-02    1.0222622656e+05
    2.8382156044e-02    1.0222628125e+05
    2.8401065618e-02    1.0222637500e+05
    2.8419965878e-02    1.0222641406e+05
    2.8438858688e-02    1.0222624219e+05
    2.8457742184e-02    1.0222575781e+05
    2.8476616368e-02    1.0222536719e+05
    2.8495483100e-02    1.0222280469e+05
    2.8514338657e-02    1.0221483594e+05
    2.8533160686e-02    1.0221377344e+05
    2.8551930562e-02    1.0221278125e+05
    2.8570635244e-02    1.0221564844e+05
    2.8589271009e-02    1.0221052344e+05
    2.8607837856e-02    1.0221497656e+05
    2.8626350686e-02    1.0221460156e+05
    2.8644818813e-02    1.0220907031e+05
    2.8663259000e-02    1.0220866406e+05
    2.8681686148e-02    1.0220802344e+05
    2.8700113297e-02    1.0220716406e+05
    2.8718546033e-02    1.0220378906e+05
    2.8736986220e-02    1.0220253906e+05
    2.8755431995e-02    1.0220339844e+05
    2.8773877770e-02    1.0220239844e+05
    2.8792314231e-02    1.0220153125e+05
    2.8810730204e-02    1.0220074219e+05
    2.8829116374e-02    1.0220021094e+05
    2.8847465292e-02    1.0220018750e+05
    2.8865773231e-02    1.0220022656e+05
    2.8884036466e-02    1.0220693750e+05
    2.8902258724e-02    1.0220983594e+05
    2.8920443729e-02    1.0220752344e+05
    2.8938598931e-02    1.0220108594e+05
    2.8956729919e-02    1.0220153906e+05
    2.8974846005e-02    1.0221164844e+05
    2.8992949054e-02    1.0221280469e+05
    2.9011042789e-02    1.0221407031e+05
    2.9029129073e-02    1.0221515625e+05
    2.9047204182e-02    1.0221618750e+05
    2.9065268114e-02    1.0221708594e+05
    2.9083315283e-02    1.0222302344e+05
    2.9101338238e-02    1.0222390625e+05
    2.9119335115e-02    1.0222502344e+05
    2.9137304053e-02    1.0222574219e+05
    2.9155241325e-02    1.0222253906e+05
    2.9173148796e-02    1.0222382031e+05
    2.9191024601e-02    1.0223239844e+05
    2.9208874330e-02    1.0223402344e+05
    2.9226697981e-02    1.0223363281e+05
    2.9244501144e-02    1.0223521094e+05
    2.9262285680e-02    1.0223430469e+05
    2.9280053452e-02    1.0223853906e+05
    2.9297806323e-02    1.0224239844e+05
    2.9315544292e-02    1.0224399219e+05
    2.9333265498e-02    1.0224359375e+05
    2.9350971803e-02    1.0224728906e+05
    2.9368655756e-02    1.0224903125e+05
    2.9386319220e-02    1.0224877344e+05
    2.9403960332e-02    1.0225061719e+05
    2.9421577230e-02    1.0225256250e+05
    2.9439168051e-02    1.0225457031e+05
    2.9456734657e-02    1.0225641406e+05
    2.9474277049e-02    1.0225594531e+05
    2.9491795227e-02    1.0225546094e+05
    2.9509292915e-02    1.0225744531e+05
    2.9526771978e-02    1.0226466406e+05
    2.9544232413e-02    1.0226622656e+05
    2.9561674222e-02    1.0226484375e+05
    2.9579099268e-02    1.0226319531e+05
    2.9596509412e-02    1.0226396094e+05
    2.9613900930e-02    1.0226247656e+05
    2.9631273821e-02    1.0226060156e+05
    2.9648626223e-02    1.0225519531e+05
    2.9665958136e-02    1.0225049219e+05
    2.9683271423e-02    1.0224446094e+05
    2.9700560495e-02    1.0224325000e+05
    2.9717829078e-02    1.0223786719e+05
    2.9735075310e-02    1.0223397656e+05
    2.9752301052e-02    1.0222978125e+05
    2.9769508168e-02    1.0222814844e+05
    2.9786696658e-02    1.0222635156e+05
    2.9803866521e-02    1.0222021094e+05
    2.9821017757e-02    1.0221246094e+05
    2.9838152230e-02    1.0220516406e+05
    2.9855269939e-02    1.0219607031e+05
    2.9872370884e-02    1.0218492969e+05
    2.9889453202e-02    1.0217753906e+05
    2.9906518757e-02    1.0217269531e+05
    2.9923565686e-02    1.0216813281e+05
    2.9940593988e-02    1.0216358594e+05
    2.9957601801e-02    1.0215914844e+05
    2.9974590987e-02    1.0215044531e+05
    2.9991561547e-02    1.0214569531e+05
    3.0008511618e-02    1.0213559375e+05
    3.0025444925e-02    1.0213037500e+05
    3.0042361468e-02    1.0212534375e+05
    3.0059259385e-02    1.0212978906e+05
    3.0076142401e-02    1.0212581250e+05
    3.0093006790e-02    1.0213189844e+05
    3.0109854415e-02    1.0213883594e+05
    3.0126683414e-02    1.0213719531e+05
    3.0143497512e-02    1.0214528125e+05
    3.0160292983e-02    1.0214733594e+05
    3.0177071691e-02    1.0215406250e+05
    3.0193833634e-02    1.0216403906e+05
    3.0210576952e-02    1.0217067969e+05
    3.0227303505e-02    1.0217709375e+05
    3.0244011432e-02    1.0218915625e+05
    3.0260702595e-02    1.0219756250e+05
    3.0277376994e-02    1.0220533594e+05
    3.0294034630e-02    1.0220928906e+05
    3.0310675502e-02    1.0221338281e+05
    3.0327299610e-02    1.0221771094e+05
    3.0343905091e-02    1.0222717969e+05
    3.0360495672e-02    1.0223377344e+05
    3.0377071351e-02    1.0224036719e+05
    3.0393628404e-02    1.0224475781e+05
    3.0410168692e-02    1.0223983594e+05
    3.0426690355e-02    1.0224406250e+05
    3.0443195254e-02    1.0224841406e+05
    3.0459685251e-02    1.0225253125e+05
    3.0476156622e-02    1.0225621094e+05
    3.0492611229e-02    1.0225567969e+05
    3.0509050936e-02    1.0225346094e+05
    3.0525473878e-02    1.0224653125e+05
    3.0541881919e-02    1.0224808594e+05
    3.0558273196e-02    1.0224003125e+05
    3.0574647710e-02    1.0224053125e+05
    3.0591005459e-02    1.0223667969e+05
    3.0607348308e-02    1.0223646094e+05
    3.0623674393e-02    1.0223125781e+05
    3.0639985576e-02    1.0223112500e+05
    3.0656279996e-02    1.0223085156e+05
    3.0672557652e-02    1.0222097656e+05
    3.0688818544e-02    1.0221784375e+05
    3.0705062672e-02    1.0220924219e+05
    3.0721291900e-02    1.0220532031e+05
    3.0737506226e-02    1.0220134375e+05
    3.0753703788e-02    1.0219669531e+05
    3.0769886449e-02    1.0219452344e+05
    3.0786054209e-02    1.0219514844e+05
    3.0802207068e-02    1.0219333594e+05
    3.0818343163e-02    1.0219371094e+05
    3.0834466219e-02    1.0219421875e+05
    3.0850572512e-02    1.0219283594e+05
    3.0866663903e-02    1.0219158594e+05
    3.0882738531e-02    1.0218387500e+05
    3.0898798257e-02    1.0218552344e+05
    3.0914843082e-02    1.0218472656e+05
    3.0930871144e-02    1.0218652344e+05
    3.0946886167e-02    1.0218627344e+05
    3.0962884426e-02    1.0218814844e+05
    3.0978867784e-02    1.0218814844e+05
    3.0994836241e-02    1.0218846094e+05
    3.1010789797e-02    1.0218922656e+05
    3.1026728451e-02    1.0219530469e+05
    3.1042650342e-02    1.0219647656e+05
    3.1058559194e-02    1.0219789844e+05
    3.1074455008e-02    1.0219932031e+05
    3.1090334058e-02    1.0220499219e+05
    3.1106200069e-02    1.0220650000e+05
    3.1122051179e-02    1.0220821094e+05
    3.1137887388e-02    1.0221228125e+05
    3.1153710559e-02    1.0221641406e+05
    3.1169516966e-02    1.0222227344e+05
    3.1185310334e-02    1.0222392969e+05
    3.1201090664e-02    1.0222532031e+05
    3.1216854230e-02    1.0221950781e+05
    3.1232602894e-02    1.0221871094e+05
    3.1248336658e-02    1.0222917969e+05
    3.1264055520e-02    1.0223037500e+05
    3.1279761344e-02    1.0223153125e+05
    3.1295452267e-02    1.0222864844e+05
    3.1311132014e-02    1.0223418750e+05
    3.1326796860e-02    1.0223572656e+05
    3.1342446804e-02    1.0223721094e+05
    3.1358085573e-02    1.0223853906e+05
    3.1373709440e-02    1.0223974219e+05
    3.1389318407e-02    1.0224075781e+05
    3.1404916197e-02    1.0224196094e+05
    3.1420499086e-02    1.0224602344e+05
    3.1436067075e-02    1.0225435156e+05
    3.1451620162e-02    1.0225612500e+05
    3.1467158347e-02    1.0225800000e+05
    3.1482685357e-02    1.0226010156e+05
    3.1498193741e-02    1.0226211719e+05
    3.1513694674e-02    1.0226421094e+05
    3.1529176980e-02    1.0226625000e+05
    3.1544648111e-02    1.0226832031e+05
    3.1560108066e-02    1.0227037500e+05
    3.1575553119e-02    1.0227262500e+05
    3.1590986997e-02    1.0228012500e+05
    3.1606405973e-02    1.0228235156e+05
    3.1621813774e-02    1.0227959375e+05
    3.1637206674e-02    1.0228175000e+05
    3.1652588397e-02    1.0228412500e+05
    3.1667951494e-02    1.0228628125e+05
    3.1683307141e-02    1.0228830469e+05
    3.1698647887e-02    1.0228990625e+05
    3.1713977456e-02    1.0228728125e+05
    3.1729292125e-02    1.0228864844e+05
    3.1744595617e-02    1.0228477344e+05
    3.1759884208e-02    1.0228575000e+05
    3.1775161624e-02    1.0228657031e+05
    3.1790427864e-02    1.0228733594e+05
    3.1805675477e-02    1.0228808594e+05
    3.1820915639e-02    1.0228875000e+05
    3.1836140901e-02    1.0228958594e+05
    3.1851354986e-02    1.0229056250e+05
    3.1866557896e-02    1.0229189844e+05
    3.1881745905e-02    1.0229305469e+05
    3.1896922737e-02    1.0229403906e+05
    3.1912088394e-02    1.0229488281e+05
    3.1927239150e-02    1.0229534375e+05
    3.1942378730e-02    1.0229139844e+05
    3.1957507133e-02    1.0228602344e+05
    3.1972620636e-02    1.0228567969e+05
    3.1987726688e-02    1.0228528906e+05
    3.2002814114e-02    1.0228491406e+05
    3.2017890364e-02    1.0228446875e+05
    3.2032959163e-02    1.0228411719e+05
    3.2048013061e-02    1.0228369531e+05
    3.2063052058e-02    1.0228090625e+05
    3.2078083605e-02    1.0227560156e+05
    3.2093103975e-02    1.0227203906e+05
    3.2108109444e-02    1.0227086719e+05
    3.2123107463e-02    1.0226959375e+05
    3.2138090581e-02    1.0226833594e+05
    3.2153062522e-02    1.0226721875e+05
    3.2168023288e-02    1.0226609375e+05
    3.2182972878e-02    1.0226996094e+05
    3.2197911292e-02    1.0226883594e+05
    3.2212834805e-02    1.0226514844e+05
    3.2227750868e-02    1.0226150781e+05
    3.2242652029e-02    1.0226019531e+05
    3.2257542014e-02    1.0225913281e+05
    3.2272424549e-02    1.0225794531e+05
    3.2287292182e-02    1.0225665625e+05
    3.2302148640e-02    1.0225091406e+05
    3.2316997647e-02    1.0224902344e+05
    3.2331831753e-02    1.0224197656e+05
    3.2346658409e-02    1.0223985156e+05
    3.2361470163e-02    1.0223778906e+05
    3.2376270741e-02    1.0223565625e+05
    3.2391063869e-02    1.0223353125e+05
    3.2405842096e-02    1.0223152344e+05
    3.2420612872e-02    1.0223178125e+05
    3.2435368747e-02    1.0223267969e+05
    3.2450113446e-02    1.0222919531e+05
    3.2464850694e-02    1.0222541406e+05
    3.2479573041e-02    1.0222406250e+05
    3.2494287938e-02    1.0222271094e+05
    3.2508991659e-02    1.0222128906e+05
    3.2523684204e-02    1.0221989844e+05
    3.2538365573e-02    1.0222103906e+05
    3.2553035766e-02    1.0222225000e+05
    3.2567698509e-02    1.0222083594e+05
    3.2582346350e-02    1.0221428906e+05
    3.2596986741e-02    1.0221283594e+05
    3.2611619681e-02    1.0221150781e+05
    3.2626237720e-02    1.0221022656e+05
    3.2640848309e-02    1.0220887500e+05
    3.2655447721e-02    1.0220769531e+05
    3.2670035958e-02    1.0220650000e+05
    3.2684613019e-02    1.0220553906e+05
    3.2699178904e-02    1.0220974219e+05
    3.2713737339e-02    1.0220914844e+05
    3.2728284597e-02    1.0221299219e+05
    3.2742820680e-02    1.0221307031e+05
    3.2757349312e-02    1.0221338281e+05
    3.2771866769e-02    1.0221390625e+05
    3.2786373049e-02    1.0221467969e+05
    3.2800871879e-02    1.0221558594e+05
    3.2815355808e-02    1.0222146875e+05
    3.2829832286e-02    1.0222246094e+05
    3.2844301313e-02    1.0222362500e+05
    3.2858755440e-02    1.0222472656e+05
    3.2873202115e-02    1.0222605469e+05
    3.2887637615e-02    1.0222711719e+05
    3.2902065665e-02    1.0222807031e+05
    3.2916482538e-02    1.0222894531e+05
    3.2930891961e-02    1.0222460156e+05
    3.2945290208e-02    1.0222528906e+05
    3.2959677279e-02    1.0223074219e+05
    3.2974056900e-02    1.0223631250e+05
    3.2988425344e-02    1.0223736719e+05
    3.3002786338e-02    1.0223441406e+05
    3.3017136157e-02    1.0223302344e+05
    3.3031478524e-02    1.0223425000e+05
    3.3045809716e-02    1.0224208594e+05
    3.3060129732e-02    1.0224336719e+05
    3.3074442297e-02    1.0223997656e+05
    3.3088747412e-02    1.0223644531e+05
    3.3103041351e-02    1.0224255469e+05
    3.3117324114e-02    1.0224769531e+05
    3.3131599426e-02    1.0224847656e+05
    3.3145863563e-02    1.0224707031e+05
    3.3160120249e-02    1.0224553906e+05
    3.3174365759e-02    1.0224603906e+05
    3.3188603818e-02    1.0224400000e+05
    3.3202830702e-02    1.0224178125e+05
    3.3217050135e-02    1.0224221094e+05
    3.3231258392e-02    1.0224505469e+05
    3.3245459199e-02    1.0224569531e+05
    3.3259648830e-02    1.0224632031e+05
    3.3273831010e-02    1.0224450781e+05
    3.3288005739e-02    1.0224522656e+05
    3.3302169293e-02    1.0224609375e+05
    3.3316325396e-02    1.0224697656e+05
    3.3330474049e-02    1.0224780469e+05
    3.3344611526e-02    1.0224874219e+05
    3.3358741552e-02    1.0224964844e+05
    3.3372864127e-02    1.0225053906e+05
    3.3386975527e-02    1.0225389844e+05
    3.3401079476e-02    1.0225460156e+05
    3.3415172249e-02    1.0225278906e+05
    3.3429257572e-02    1.0225366406e+05
    3.3443335444e-02    1.0225458594e+05
    3.3457405865e-02    1.0225810156e+05
    3.3471468836e-02    1.0225921094e+05
    3.3485524356e-02    1.0226025781e+05
    3.3499568701e-02    1.0225874219e+05
    3.3513605595e-02    1.0225987500e+05
    3.3527631313e-02    1.0226372656e+05
    3.3541653305e-02    1.0226758594e+05
    3.3555664122e-02    1.0226897656e+05
    3.3569667488e-02    1.0227043750e+05
    3.3583663404e-02    1.0227209375e+05
    3.3597648144e-02    1.0227322656e+05
    3.3611625433e-02    1.0227484375e+05
    3.3625595272e-02    1.0227656250e+05
    3.3639557660e-02    1.0227357031e+05
    3.3653512597e-02    1.0227983594e+05
    3.3667460084e-02    1.0228146875e+05
    3.3681396395e-02    1.0228091406e+05
    3.3695328981e-02    1.0227991406e+05
    3.3709254116e-02    1.0228389844e+05
    3.3723168075e-02    1.0228771094e+05
    3.3737078309e-02    1.0228896094e+05
    3.3750977367e-02    1.0228744531e+05
    3.3764872700e-02    1.0228828125e+05
    3.3778760582e-02    1.0228911719e+05
    3.3792637289e-02    1.0228716406e+05
    3.3806510270e-02    1.0228768750e+05
    3.3820372075e-02    1.0228797656e+05
    3.3834230155e-02    1.0228812500e+05
    3.3848077059e-02    1.0228814844e+05
    3.3861916512e-02    1.0228778906e+05
    3.3875752240e-02    1.0228302344e+05
    3.3889576793e-02    1.0227691406e+05
    3.3903393894e-02    1.0227539844e+05
    3.3917203546e-02    1.0227375000e+05
    3.3931009471e-02    1.0227219531e+05
    3.3944804221e-02    1.0227041406e+05
    3.3958595246e-02    1.0226860156e+05
    3.3972378820e-02    1.0226657031e+05
    3.3986151218e-02    1.0226409375e+05
    3.3999919891e-02    1.0226125781e+05
    3.4013681114e-02    1.0225814844e+05
    3.4027434886e-02    1.0225202344e+05
    3.4041177481e-02    1.0224164844e+05
    3.4054916352e-02    1.0223752344e+05
    3.4068647772e-02    1.0223310156e+05
    3.4082375467e-02    1.0222622656e+05
    3.4096091986e-02    1.0221414844e+05
    3.4109804779e-02    1.0220897656e+05
    3.4123510122e-02    1.0220382031e+05
    3.4137208015e-02    1.0220353125e+05
    3.4150898457e-02    1.0220338281e+05
    3.4164581448e-02    1.0219889844e+05
    3.4178260714e-02    1.0219035156e+05
    3.4191932529e-02    1.0218094531e+05
    3.4205596894e-02    1.0217658594e+05
    3.4219253808e-02    1.0217234375e+05
    3.4232903272e-02    1.0216814844e+05
    3.4246545285e-02    1.0216914844e+05
    3.4260183573e-02    1.0216535156e+05
    3.4273810685e-02    1.0216606250e+05
    3.4287434071e-02    1.0216300000e+05
    3.4301050007e-02    1.0215815625e+05
    3.4314658493e-02    1.0215553906e+05
    3.4328263253e-02    1.0215331250e+05
    3.4341860563e-02    1.0215133594e+05
    3.4355450422e-02    1.0215685156e+05
    3.4369036555e-02    1.0215567969e+05
    3.4382611513e-02    1.0215497656e+05
    3.4396182746e-02    1.0215475000e+05
    3.4409742802e-02    1.0215502344e+05
    3.4423299134e-02    1.0215571094e+05
    3.4436848015e-02    1.0215913281e+05
    3.4450393170e-02    1.0216803125e+05
    3.4463927150e-02    1.0217052344e+05
    3.4477461129e-02    1.0218028906e+05
    3.4490987659e-02    1.0218633594e+05
    3.4504506737e-02    1.0219032031e+05
    3.4518022090e-02    1.0220374219e+05
    3.4531529993e-02    1.0220816406e+05
    3.4545030445e-02    1.0221281250e+05
    3.4558523446e-02    1.0221741406e+05
    3.4572008997e-02    1.0222182031e+05
    3.4585487098e-02    1.0222372656e+05
    3.4598957747e-02    1.0222572656e+05
    3.4612424672e-02    1.0223028125e+05
    3.4625884145e-02    1.0223743750e+05
    3.4639336169e-02    1.0224472656e+05
    3.4652780741e-02    1.0225377344e+05
    3.4666225314e-02    1.0225852344e+05
    3.4679658711e-02    1.0226309375e+05
    3.4693088382e-02    1.0226746094e+05
    3.4706510603e-02    1.0227153906e+05
    3.4719929099e-02    1.0227534375e+05
    3.4733340144e-02    1.0227867969e+05
    3.4746743739e-02    1.0227464844e+05
    3.4760143608e-02    1.0227535156e+05
    3.4773536026e-02    1.0227796094e+05
    3.4786924720e-02    1.0228264844e+05
    3.4800305963e-02    1.0228507031e+05
    3.4813679755e-02    1.0228728906e+05
    3.4827046096e-02    1.0228717969e+05
    3.4840408713e-02    1.0228875000e+05
    3.4853763878e-02    1.0228991406e+05
    3.4867111593e-02    1.0229052344e+05
    3.4880455583e-02    1.0228164844e+05
    3.4893795848e-02    1.0228149219e+05
    3.4907124937e-02    1.0228102344e+05
    3.4920454025e-02    1.0228050781e+05
    3.4933775663e-02    1.0227453906e+05
    3.4947093576e-02    1.0227128906e+05
    3.4960404038e-02    1.0226778125e+05
    3.4973710775e-02    1.0226619531e+05
    3.4987010062e-02    1.0226452344e+05
endcurve
