Curveplot
LS-DYNA keyword deck by LS-PrePost                          
Time
Pressure
Defined Connection
Pressure @ 62 #pts=1745
* Minval=     9.9685898438e+04 at time=         0.0161439423
* Maxval=     1.6861873438e+05 at time=         0.0069422605
    0.0000000000e+00    9.9998710938e+04
    3.3812357287e-05    9.9998710938e+04
    6.1326652940e-05    9.9997726562e+04
    8.9102875791e-05    9.9998937500e+04
    1.1682785407e-04    9.9997914062e+04
    1.4461828687e-04    9.9999351562e+04
    1.7236733402e-04    9.9998726562e+04
    2.0016246708e-04    1.0000964844e+05
    2.2795486439e-04    1.0000107031e+05
    2.5574557367e-04    9.9999914062e+04
    2.8353667585e-04    9.9999601562e+04
    3.1133697485e-04    9.9990085938e+04
    3.3912662184e-04    1.0000141406e+05
    3.6691734567e-04    1.0000059375e+05
    3.9470891352e-04    9.9999914062e+04
    4.2249175021e-04    1.0000953906e+05
    4.5027161832e-04    1.0000196094e+05
    4.7804549104e-04    1.0000185156e+05
    5.0581363030e-04    9.9996960938e+04
    5.3357944125e-04    9.9998617188e+04
    5.6134146871e-04    9.9992585938e+04
    5.8909942163e-04    1.0000125000e+05
    6.1685312539e-04    1.0000135156e+05
    6.4460188150e-04    1.0000003906e+05
    6.7234638846e-04    9.9999898438e+04
    7.0008635521e-04    1.0000093750e+05
    7.2782178177e-04    1.0000193750e+05
    7.5555208605e-04    1.0000227344e+05
    7.8327720985e-04    1.0000128906e+05
    8.1099680392e-04    1.0000222656e+05
    8.3871174138e-04    9.9995039062e+04
    8.6642213864e-04    1.0000169531e+05
    8.9412782108e-04    1.0000162500e+05
    9.2182843946e-04    9.9999085938e+04
    9.4952445943e-04    1.0000109375e+05
    9.7721535712e-04    1.0000088281e+05
    1.0049008997e-03    1.0000083594e+05
    1.0325826006e-03    1.0000093750e+05
    1.0602590628e-03    1.0000017969e+05
    1.0879321489e-03    1.0000121094e+05
    1.1155996472e-03    1.0000100000e+05
    1.1432634201e-03    9.9990664062e+04
    1.1709230021e-03    9.9999242188e+04
    1.1985785095e-03    1.0000125781e+05
    1.2262313394e-03    1.0000239844e+05
    1.2538790470e-03    1.0000391406e+05
    1.2815232622e-03    1.0000225781e+05
    1.3091630535e-03    1.0000287500e+05
    1.3368004002e-03    1.0000477344e+05
    1.3644339051e-03    1.0001065625e+05
    1.3920635683e-03    1.0002521094e+05
    1.4196902048e-03    1.0005250000e+05
    1.4473132323e-03    1.0010091406e+05
    1.4749332331e-03    1.0018697656e+05
    1.5025498578e-03    1.0032615625e+05
    1.5301633393e-03    1.0052092969e+05
    1.5577742597e-03    1.0077228906e+05
    1.5853822697e-03    1.0109985156e+05
    1.6129877185e-03    1.0147112500e+05
    1.6405890929e-03    1.0186721094e+05
    1.6681876732e-03    1.0225050000e+05
    1.6957829939e-03    1.0259037500e+05
    1.7233766848e-03    1.0286946094e+05
    1.7509678146e-03    1.0305758594e+05
    1.7785291420e-03    1.0314160156e+05
    1.8060547300e-03    1.0313507031e+05
    1.8335470231e-03    1.0305409375e+05
    1.8610082334e-03    1.0291280469e+05
    1.8884401070e-03    1.0274683594e+05
    1.9158447394e-03    1.0257903906e+05
    1.9432241097e-03    1.0241503125e+05
    1.9705800805e-03    1.0229742969e+05
    1.9979148638e-03    1.0222360156e+05
    2.0252298564e-03    1.0219349219e+05
    2.0525271539e-03    1.0221561719e+05
    2.0798076876e-03    1.0227343750e+05
    2.1070730872e-03    1.0234577344e+05
    2.1343247499e-03    1.0242093750e+05
    2.1615643054e-03    1.0247925781e+05
    2.1887931507e-03    1.0252139844e+05
    2.2160108201e-03    1.0254174219e+05
    2.2432196420e-03    1.0254178906e+05
    2.2704207804e-03    1.0251630469e+05
    2.2976147011e-03    1.0247946094e+05
    2.3248014040e-03    1.0243930469e+05
    2.3519827519e-03    1.0240828125e+05
    2.3791582789e-03    1.0239453125e+05
    2.4063293822e-03    1.0239453125e+05
    2.4334960617e-03    1.0239252344e+05
    2.4606597144e-03    1.0240132031e+05
    2.4878205732e-03    1.0240900000e+05
    2.5149781723e-03    1.0242286719e+05
    2.5421329774e-03    1.0243361719e+05
    2.5692859199e-03    1.0244678906e+05
    2.5964374654e-03    1.0245027344e+05
    2.6235871483e-03    1.0244784375e+05
    2.6507352013e-03    1.0243736719e+05
    2.6778825559e-03    1.0242791406e+05
    2.7050296776e-03    1.0242288281e+05
    2.7321761008e-03    1.0241636719e+05
    2.7593218256e-03    1.0241465625e+05
    2.7864677832e-03    1.0241984375e+05
    2.8136142064e-03    1.0242182031e+05
    2.8407603968e-03    1.0243487500e+05
    2.8679079842e-03    1.0244756250e+05
    2.8950548731e-03    1.0246282031e+05
    2.9222022276e-03    1.0247796875e+05
    2.9493502807e-03    1.0252336719e+05
    2.9764990322e-03    1.0257263281e+05
    3.0036487151e-03    1.0264455469e+05
    3.0307997949e-03    1.0272416406e+05
    3.0579508748e-03    1.0281562500e+05
    3.0851035845e-03    1.0291543750e+05
    3.1122572254e-03    1.0301505469e+05
    3.1394117977e-03    1.0312218750e+05
    3.1665677670e-03    1.0320559375e+05
    3.1937246677e-03    1.0326683594e+05
    3.2208829653e-03    1.0330071094e+05
    3.2480424270e-03    1.0330327344e+05
    3.2752046827e-03    1.0328978906e+05
    3.2952371985e-03    1.0325783594e+05
    3.3145032357e-03    1.0322762500e+05
    3.3336398192e-03    1.0319199219e+05
    3.3528339118e-03    1.0314969531e+05
    3.3720366191e-03    1.0310112500e+05
    3.3912549261e-03    1.0305491406e+05
    3.4104890656e-03    1.0301357031e+05
    3.4297339153e-03    1.0297307031e+05
    3.4486323129e-03    1.0292882031e+05
    3.4671388566e-03    1.0288728906e+05
    3.4854323603e-03    1.0283131250e+05
    3.5036695190e-03    1.0277124219e+05
    3.5219141282e-03    1.0270658594e+05
    3.5401545465e-03    1.0263066406e+05
    3.5583588760e-03    1.0255818750e+05
    3.5765271168e-03    1.0248941406e+05
    3.5946895368e-03    1.0242850781e+05
    3.6139658187e-03    1.0237365625e+05
    3.6330535077e-03    1.0232706250e+05
    3.6521453876e-03    1.0228840625e+05
    3.6699753255e-03    1.0225166406e+05
    3.6875614896e-03    1.0223324219e+05
    3.7050142419e-03    1.0220903906e+05
    3.7224807311e-03    1.0219189844e+05
    3.7400643341e-03    1.0217921875e+05
    3.7577797193e-03    1.0216874219e+05
    3.7755726371e-03    1.0215108594e+05
    3.7933769636e-03    1.0214441406e+05
    3.8111612666e-03    1.0213944531e+05
    3.8289318327e-03    1.0212815625e+05
    3.8467168342e-03    1.0212403906e+05
    3.8645383902e-03    1.0212503906e+05
    3.8824023213e-03    1.0211669531e+05
    3.9002960548e-03    1.0210903125e+05
    3.9182156324e-03    1.0209225781e+05
    3.9361710660e-03    1.0207059375e+05
    3.9541716687e-03    1.0204860156e+05
    3.9733103476e-03    1.0203103125e+05
    3.9924201556e-03    1.0201331250e+05
    4.0104058571e-03    1.0199490625e+05
    4.0284004062e-03    1.0198767969e+05
    4.0464363992e-03    1.0198265625e+05
    4.0656095371e-03    1.0197834375e+05
    4.0847789496e-03    1.0197431250e+05
    4.1039343923e-03    1.0196177344e+05
    4.1219722480e-03    1.0194891406e+05
    4.1400394402e-03    1.0194168750e+05
    4.1591953486e-03    1.0193536719e+05
    4.1784178466e-03    1.0193247656e+05
    4.1976389475e-03    1.0192191406e+05
    4.2168586515e-03    1.0192147656e+05
    4.2360713705e-03    1.0191077344e+05
    4.2552771047e-03    1.0190106250e+05
    4.2744791135e-03    1.0189278906e+05
    4.2936825193e-03    1.0187947656e+05
    4.3128933758e-03    1.0186765625e+05
    4.3321144767e-03    1.0185652344e+05
    4.3513495475e-03    1.0184071875e+05
    4.3705995195e-03    1.0182199219e+05
    4.3898657896e-03    1.0179728906e+05
    4.4091497548e-03    1.0177381250e+05
    4.4284537435e-03    1.0174464844e+05
    4.4477786869e-03    1.0171402344e+05
    4.4671236537e-03    1.0167650781e+05
    4.4864914380e-03    1.0162916406e+05
    4.5058806427e-03    1.0156499219e+05
    4.5252908021e-03    1.0149552344e+05
    4.5447219163e-03    1.0140775781e+05
    4.5641721226e-03    1.0131200781e+05
    4.5836409554e-03    1.0120860156e+05
    4.6031279489e-03    1.0110285156e+05
    4.6226321720e-03    1.0098661719e+05
    4.6421540901e-03    1.0086475000e+05
    4.6616927721e-03    1.0074110156e+05
    4.6812482178e-03    1.0061678906e+05
    4.7008208930e-03    1.0049546875e+05
    4.7204112634e-03    1.0039110156e+05
    4.7400193289e-03    1.0030317969e+05
    4.7596455552e-03    1.0023394531e+05
    4.7792894766e-03    1.0018742969e+05
    4.7989510931e-03    1.0015672656e+05
    4.8186304048e-03    1.0014683594e+05
    4.8383255489e-03    1.0015514844e+05
    4.8580355942e-03    1.0018347656e+05
    4.8777610064e-03    1.0022305469e+05
    4.8975008540e-03    1.0028590625e+05
    4.9172551371e-03    1.0035233594e+05
    4.9370229244e-03    1.0041369531e+05
    4.9568060786e-03    1.0047582031e+05
    4.9766036682e-03    1.0052906250e+05
    4.9964170903e-03    1.0057249219e+05
    5.0162458792e-03    1.0061427344e+05
    5.0360900350e-03    1.0064083594e+05
    5.0559476949e-03    1.0066965625e+05
    5.0758207217e-03    1.0068396094e+05
    5.0957072526e-03    1.0068402344e+05
    5.1156077534e-03    1.0067722656e+05
    5.1355226897e-03    1.0066516406e+05
    5.1554525271e-03    1.0064558594e+05
    5.1753963344e-03    1.0062858594e+05
    5.1953555085e-03    1.0061539844e+05
    5.2153295837e-03    1.0059696094e+05
    5.2353194915e-03    1.0058538281e+05
    5.2553247660e-03    1.0057574219e+05
    5.2753463387e-03    1.0057384375e+05
    5.2953832783e-03    1.0057289844e+05
    5.3154369816e-03    1.0057367969e+05
    5.3355065174e-03    1.0058065625e+05
    5.3555918857e-03    1.0059034375e+05
    5.3756926209e-03    1.0059921875e+05
    5.3958082572e-03    1.0061485156e+05
    5.4159392603e-03    1.0063124219e+05
    5.4360851645e-03    1.0064264844e+05
    5.4562464356e-03    1.0065369531e+05
    5.4764230736e-03    1.0066102344e+05
    5.4966160096e-03    1.0066600781e+05
    5.5168238468e-03    1.0066288281e+05
    5.5370470509e-03    1.0066327344e+05
    5.5572865531e-03    1.0066535156e+05
    5.5775423534e-03    1.0066721094e+05
    5.5978130549e-03    1.0066900781e+05
    5.6181000546e-03    1.0067421094e+05
    5.6384028867e-03    1.0068172656e+05
    5.6587206200e-03    1.0068108594e+05
    5.6790532544e-03    1.0067612500e+05
    5.6994007900e-03    1.0067981250e+05
    5.7197632268e-03    1.0068353906e+05
    5.7401410304e-03    1.0068621094e+05
    5.7605337352e-03    1.0068672656e+05
    5.7809422724e-03    1.0068983594e+05
    5.8013652451e-03    1.0069416406e+05
    5.8218040504e-03    1.0069750781e+05
    5.8422577567e-03    1.0070099219e+05
    5.8627268299e-03    1.0070435156e+05
    5.8832112700e-03    1.0071728125e+05
    5.9037101455e-03    1.0072208594e+05
    5.9242248535e-03    1.0072752344e+05
    5.9447535314e-03    1.0073400000e+05
    5.9641525149e-03    1.0073764844e+05
    5.9830932878e-03    1.0074222656e+05
    6.0020405799e-03    1.0074672656e+05
    6.0210367665e-03    1.0075127344e+05
    6.0400799848e-03    1.0075575781e+05
    6.0591096990e-03    1.0076946094e+05
    6.0781282373e-03    1.0077306250e+05
    6.0972142965e-03    1.0077785156e+05
    6.1162756756e-03    1.0078278125e+05
    6.1353649944e-03    1.0078783594e+05
    6.1544459313e-03    1.0079888281e+05
    6.1734300107e-03    1.0080905469e+05
    6.1924448237e-03    1.0081466406e+05
    6.2115197070e-03    1.0082043750e+05
    6.2306127511e-03    1.0083264844e+05
    6.2497169711e-03    1.0084071875e+05
    6.2688281760e-03    1.0085667969e+05
    6.2879407778e-03    1.0086641406e+05
    6.3070552424e-03    1.0088360156e+05
    6.3261794858e-03    1.0089631250e+05
    6.3453060575e-03    1.0090847656e+05
    6.3644465990e-03    1.0092756250e+05
    6.3835908659e-03    1.0094352344e+05
    6.4027444459e-03    1.0095971094e+05
    6.4219115302e-03    1.0098067969e+05
    6.4410855994e-03    1.0100400781e+05
    6.4602680504e-03    1.0101685156e+05
    6.4794607460e-03    1.0102964844e+05
    6.4986641519e-03    1.0104274219e+05
    6.5178787336e-03    1.0105665625e+05
    6.5371058881e-03    1.0105966406e+05
    6.5563363023e-03    1.0107005469e+05
    6.5755699761e-03    1.0107188281e+05
    6.5948092379e-03    1.0107867969e+05
    6.6140629351e-03    1.0108496094e+05
    6.6333152354e-03    1.0109640625e+05
    6.6525745206e-03    1.0112061719e+05
    6.6718445159e-03    1.0118358594e+05
    6.6911154427e-03    1.0131596094e+05
    6.7104012705e-03    1.0158639844e+05
    6.7296870984e-03    1.0214897656e+05
    6.7489854991e-03    1.0326856250e+05
    6.7682852969e-03    1.0539187500e+05
    6.7875892855e-03    1.0912171875e+05
    6.8069072440e-03    1.1506952344e+05
    6.8262196146e-03    1.2350191406e+05
    6.8455408327e-03    1.3396425000e+05
    6.8648783490e-03    1.4515362500e+05
    6.8842126057e-03    1.5527520312e+05
    6.9035501219e-03    1.6281068750e+05
    6.9228983484e-03    1.6715437500e+05
    6.9422605447e-03    1.6861873438e+05
    6.9616222754e-03    1.6809371875e+05
    6.9809844717e-03    1.6651543750e+05
    7.0003494620e-03    1.6469209375e+05
    7.0197195746e-03    1.6310456250e+05
    7.0390999317e-03    1.6180492188e+05
    7.0584909990e-03    1.6069178125e+05
    7.0778946392e-03    1.5955498438e+05
    7.0973108523e-03    1.5826125000e+05
    7.1167377755e-03    1.5673806250e+05
    7.1361698210e-03    1.5500973438e+05
    7.1556069888e-03    1.5316218750e+05
    7.1750483476e-03    1.5128685938e+05
    7.1944966912e-03    1.4947412500e+05
    7.2139529511e-03    1.4776098438e+05
    7.2334166616e-03    1.4615750000e+05
    7.2528840974e-03    1.4465440625e+05
    7.2723543271e-03    1.4320609375e+05
    7.2918278165e-03    1.4179734375e+05
    7.3113050312e-03    1.4042054688e+05
    7.3307845742e-03    1.3906889062e+05
    7.3502692394e-03    1.3776467188e+05
    7.3697618209e-03    1.3651567188e+05
    7.3892641813e-03    1.3535270312e+05
    7.4087800458e-03    1.3426060938e+05
    7.4282912537e-03    1.3325081250e+05
    7.4477996677e-03    1.3231845312e+05
    7.4673094787e-03    1.3145054688e+05
    7.4868267402e-03    1.3064202344e+05
    7.5063589029e-03    1.2987497656e+05
    7.5258887373e-03    1.2914903906e+05
    7.5454111211e-03    1.2845694531e+05
    7.5649353676e-03    1.2780490625e+05
    7.5844703242e-03    1.2719353906e+05
    7.6040057465e-03    1.2662265625e+05
    7.6235276647e-03    1.2608485156e+05
    7.6430505142e-03    1.2558293750e+05
    7.6625877991e-03    1.2511396094e+05
    7.6821087860e-03    1.2466167969e+05
    7.7016241848e-03    1.2422514844e+05
    7.7211544849e-03    1.2380366406e+05
    7.7406810597e-03    1.2340502344e+05
    7.7602043748e-03    1.2301457031e+05
    7.7797495760e-03    1.2264109375e+05
    7.7992938459e-03    1.2227882031e+05
    7.8188432381e-03    1.2193165625e+05
    7.8384252265e-03    1.2159413281e+05
    7.8580006957e-03    1.2126853125e+05
    7.8775910661e-03    1.2095842969e+05
    7.8972103074e-03    1.2065308594e+05
    7.9168286175e-03    1.2034715625e+05
    7.9364804551e-03    1.2004516406e+05
    7.9561360180e-03    1.1973760156e+05
    7.9758102074e-03    1.1943113281e+05
    7.9955114052e-03    1.1912453906e+05
    8.0152126029e-03    1.1882191406e+05
    8.0349491909e-03    1.1852877344e+05
    8.0546662211e-03    1.1824853125e+05
    8.0743944272e-03    1.1797552344e+05
    8.0941170454e-03    1.1772036719e+05
    8.1138620153e-03    1.1747071094e+05
    8.1336386502e-03    1.1723389844e+05
    8.1534720957e-03    1.1701485156e+05
    8.1733558327e-03    1.1680483594e+05
    8.1932730973e-03    1.1661402344e+05
    8.2132071257e-03    1.1643175000e+05
    8.2330890000e-03    1.1626517969e+05
    8.2529615611e-03    1.1610843750e+05
    8.2727763802e-03    1.1596555469e+05
    8.2926023751e-03    1.1583402344e+05
    8.3124246448e-03    1.1570674219e+05
    8.3322748542e-03    1.1559546094e+05
    8.3521194756e-03    1.1548280469e+05
    8.3719678223e-03    1.1538003906e+05
    8.3917891607e-03    1.1527369531e+05
    8.4116021171e-03    1.1517410156e+05
    8.4314141423e-03    1.1507208594e+05
    8.4512168542e-03    1.1496653906e+05
    8.4710381925e-03    1.1486389844e+05
    8.4908353165e-03    1.1476103906e+05
    8.5106678307e-03    1.1465752344e+05
    8.5304882377e-03    1.1455164844e+05
    8.5503393784e-03    1.1444081250e+05
    8.5699046031e-03    1.1432825781e+05
    8.5892248899e-03    1.1421183594e+05
    8.6083402857e-03    1.1409880469e+05
    8.6272666231e-03    1.1398421094e+05
    8.6460309103e-03    1.1387030469e+05
    8.6646731943e-03    1.1374888281e+05
    8.6832325906e-03    1.1362746094e+05
    8.7017398328e-03    1.1350116406e+05
    8.7202098221e-03    1.1338061719e+05
    8.7386453524e-03    1.1325171094e+05
    8.7570473552e-03    1.1312966406e+05
    8.7753897533e-03    1.1300053906e+05
    8.7936492637e-03    1.1287721094e+05
    8.8118780404e-03    1.1276593750e+05
    8.8300397620e-03    1.1265433594e+05
    8.8481390849e-03    1.1255325000e+05
    8.8662039489e-03    1.1246096094e+05
    8.8842641562e-03    1.1237792969e+05
    8.9023411274e-03    1.1230002344e+05
    8.9204348624e-03    1.1223846875e+05
    8.9385388419e-03    1.1218958594e+05
    8.9566456154e-03    1.1214603906e+05
    8.9747514576e-03    1.1210330469e+05
    8.9928600937e-03    1.1207219531e+05
    9.0109808370e-03    1.1204042969e+05
    9.0291155502e-03    1.1200682031e+05
    9.0472688898e-03    1.1196522656e+05
    9.0654399246e-03    1.1191971094e+05
    9.0836230665e-03    1.1186789844e+05
    9.1018192470e-03    1.1180375000e+05
    9.1200266033e-03    1.1173547656e+05
    9.1382460669e-03    1.1164847656e+05
    9.1564757749e-03    1.1155797656e+05
    9.1747231781e-03    1.1145550000e+05
    9.1929892078e-03    1.1135044531e+05
    9.2112747952e-03    1.1123728125e+05
    9.2295790091e-03    1.1112752344e+05
    9.2479009181e-03    1.1102197656e+05
    9.2662386596e-03    1.1092383594e+05
    9.2845931649e-03    1.1083108594e+05
    9.3029672280e-03    1.1074900000e+05
    9.3213599175e-03    1.1067366406e+05
    9.3397712335e-03    1.1061283594e+05
    9.3582011759e-03    1.1055327344e+05
    9.3766497448e-03    1.1050569531e+05
    9.3951150775e-03    1.1046643750e+05
    9.4135999680e-03    1.1042121094e+05
    9.4321016222e-03    1.1038168750e+05
    9.4506228343e-03    1.1033791406e+05
    9.4691645354e-03    1.1029084375e+05
    9.4877239317e-03    1.1024653906e+05
    9.5063010231e-03    1.1019496875e+05
    9.5248948783e-03    1.1014678906e+05
    9.5435054973e-03    1.1009253906e+05
    9.5621328801e-03    1.1003925781e+05
    9.5807760954e-03    1.0998391406e+05
    9.5994332805e-03    1.0993047656e+05
    9.6181081608e-03    1.0986746875e+05
    9.6367979422e-03    1.0981493750e+05
    9.6555035561e-03    1.0975903125e+05
    9.6742231399e-03    1.0970703906e+05
    9.6929576248e-03    1.0966478125e+05
    9.7117051482e-03    1.0961952344e+05
    9.7304685041e-03    1.0957661719e+05
    9.7492448986e-03    1.0953378125e+05
    9.7680361941e-03    1.0948887500e+05
    9.7868405282e-03    1.0945110156e+05
    9.8056588322e-03    1.0940753906e+05
    9.8244920373e-03    1.0936615625e+05
    9.8433364183e-03    1.0932491406e+05
    9.8621929064e-03    1.0927696875e+05
    9.8810633644e-03    1.0922986719e+05
    9.8999459296e-03    1.0917608594e+05
    9.9188406020e-03    1.0912300781e+05
    9.9377483130e-03    1.0906660156e+05
    9.9566690624e-03    1.0901331250e+05
    9.9756028503e-03    1.0895908594e+05
    9.9945487455e-03    1.0890065625e+05
    1.0013507679e-02    1.0884386719e+05
    1.0032479651e-02    1.0877707031e+05
    1.0051463731e-02    1.0871381250e+05
    1.0070459917e-02    1.0864878906e+05
    1.0089469142e-02    1.0857934375e+05
    1.0108492337e-02    1.0850460156e+05
    1.0127528571e-02    1.0843397656e+05
    1.0146577843e-02    1.0836297656e+05
    1.0165639222e-02    1.0829317969e+05
    1.0184712708e-02    1.0822435156e+05
    1.0203798302e-02    1.0815632031e+05
    1.0222896002e-02    1.0809247656e+05
    1.0242006741e-02    1.0802778906e+05
    1.0261129588e-02    1.0797303906e+05
    1.0280264542e-02    1.0791318750e+05
    1.0299413465e-02    1.0785427344e+05
    1.0318575427e-02    1.0779622656e+05
    1.0337748565e-02    1.0773700781e+05
    1.0356934741e-02    1.0767353906e+05
    1.0376133956e-02    1.0761061719e+05
    1.0395346209e-02    1.0754085156e+05
    1.0414571501e-02    1.0747941406e+05
    1.0433809832e-02    1.0740750781e+05
    1.0453061201e-02    1.0733869531e+05
    1.0472324677e-02    1.0727050000e+05
    1.0491601191e-02    1.0720502344e+05
    1.0510892607e-02    1.0713533594e+05
    1.0530196130e-02    1.0706564844e+05
    1.0549513623e-02    1.0700097656e+05
    1.0568842292e-02    1.0693866406e+05
    1.0588183999e-02    1.0686446094e+05
    1.0607538745e-02    1.0680119531e+05
    1.0626907460e-02    1.0673846094e+05
    1.0646289214e-02    1.0667663281e+05
    1.0665684007e-02    1.0661691406e+05
    1.0685092770e-02    1.0656187500e+05
    1.0704516433e-02    1.0651108594e+05
    1.0723951273e-02    1.0646053906e+05
    1.0743400082e-02    1.0641633594e+05
    1.0762862861e-02    1.0637735156e+05
    1.0782338679e-02    1.0634188281e+05
    1.0801829398e-02    1.0630305469e+05
    1.0821334086e-02    1.0626715625e+05
    1.0840852745e-02    1.0623874219e+05
    1.0860386305e-02    1.0620089844e+05
    1.0879932903e-02    1.0616536719e+05
    1.0899493471e-02    1.0612960156e+05
    1.0919069871e-02    1.0609478906e+05
    1.0938662104e-02    1.0606083594e+05
    1.0958270170e-02    1.0602614844e+05
    1.0977892205e-02    1.0598060156e+05
    1.0997531936e-02    1.0592869531e+05
    1.1017187499e-02    1.0587256250e+05
    1.1036860757e-02    1.0579774219e+05
    1.1056551710e-02    1.0571696875e+05
    1.1076259427e-02    1.0562389844e+05
    1.1095987633e-02    1.0551988281e+05
    1.1115733534e-02    1.0540338281e+05
    1.1135498993e-02    1.0528471094e+05
    1.1155283079e-02    1.0515932031e+05
    1.1175086722e-02    1.0502550000e+05
    1.1194912717e-02    1.0489572656e+05
    1.1214758269e-02    1.0476177344e+05
    1.1234625243e-02    1.0464275000e+05
    1.1254511774e-02    1.0453082031e+05
    1.1274418794e-02    1.0442714844e+05
    1.1294347234e-02    1.0433007031e+05
    1.1314296164e-02    1.0423482031e+05
    1.1334266514e-02    1.0413689844e+05
    1.1354257353e-02    1.0403696094e+05
    1.1374268681e-02    1.0393278906e+05
    1.1394302361e-02    1.0382440625e+05
    1.1414355598e-02    1.0371342969e+05
    1.1434430256e-02    1.0360028125e+05
    1.1454525404e-02    1.0348538281e+05
    1.1474640109e-02    1.0336933594e+05
    1.1494777165e-02    1.0325997656e+05
    1.1514934711e-02    1.0315724219e+05
    1.1535113677e-02    1.0306846875e+05
    1.1555313133e-02    1.0298933594e+05
    1.1575534008e-02    1.0293062500e+05
    1.1595774442e-02    1.0288117969e+05
    1.1616035365e-02    1.0285410156e+05
    1.1636316776e-02    1.0284089844e+05
    1.1656619608e-02    1.0284482031e+05
    1.1676942930e-02    1.0286030469e+05
    1.1697287671e-02    1.0287672656e+05
    1.1717652902e-02    1.0289553906e+05
    1.1738038622e-02    1.0291572656e+05
    1.1758443899e-02    1.0293668750e+05
    1.1778870597e-02    1.0295139844e+05
    1.1799318716e-02    1.0296066406e+05
    1.1819788255e-02    1.0297400000e+05
    1.1840280145e-02    1.0298496094e+05
    1.1860790662e-02    1.0299837500e+05
    1.1881321669e-02    1.0302208594e+05
    1.1901874095e-02    1.0304342969e+05
    1.1922447011e-02    1.0306689844e+05
    1.1943042278e-02    1.0309197656e+05
    1.1963658035e-02    1.0311610156e+05
    1.1984295212e-02    1.0313391406e+05
    1.2004952878e-02    1.0314933594e+05
    1.2025631964e-02    1.0316071094e+05
    1.2046331540e-02    1.0317814844e+05
    1.2067052536e-02    1.0318922656e+05
    1.2087795883e-02    1.0319375781e+05
    1.2108558789e-02    1.0319269531e+05
    1.2129344046e-02    1.0318194531e+05
    1.2150149792e-02    1.0316935156e+05
    1.2170976959e-02    1.0314091406e+05
    1.2191825546e-02    1.0310572656e+05
    1.2212695554e-02    1.0306083594e+05
    1.2233586982e-02    1.0301702344e+05
    1.2254500762e-02    1.0296885156e+05
    1.2275436893e-02    1.0292378906e+05
    1.2296394445e-02    1.0289133594e+05
    1.2317374349e-02    1.0287053906e+05
    1.2338375673e-02    1.0288246094e+05
    1.2359398417e-02    1.0293102344e+05
    1.2380442582e-02    1.0302528125e+05
    1.2401508167e-02    1.0319033594e+05
    1.2422595173e-02    1.0343777344e+05
    1.2443703599e-02    1.0378652344e+05
    1.2464834377e-02    1.0426306250e+05
    1.2485986575e-02    1.0488785156e+05
    1.2507158332e-02    1.0566421875e+05
    1.2528351508e-02    1.0658940625e+05
    1.2549565174e-02    1.0764032031e+05
    1.2570801191e-02    1.0876264844e+05
    1.2592058629e-02    1.0988515625e+05
    1.2613337487e-02    1.1093185156e+05
    1.2634636834e-02    1.1182075781e+05
    1.2655957602e-02    1.1248049219e+05
    1.2677297927e-02    1.1287539844e+05
    1.2698660605e-02    1.1298683594e+05
    1.2720043771e-02    1.1283552344e+05
    1.2741449289e-02    1.1245760156e+05
    1.2762876227e-02    1.1189987500e+05
    1.2784325518e-02    1.1121289844e+05
    1.2805794366e-02    1.1046121875e+05
    1.2827285565e-02    1.0970864844e+05
    1.2848797254e-02    1.0899146094e+05
    1.2870330364e-02    1.0835781250e+05
    1.2891885825e-02    1.0783758594e+05
    1.2913462706e-02    1.0742108594e+05
    1.2935061008e-02    1.0709347656e+05
    1.2956679799e-02    1.0682324219e+05
    1.2978320010e-02    1.0656142969e+05
    1.2999981642e-02    1.0627439844e+05
    1.3021663763e-02    1.0593456250e+05
    1.3043368235e-02    1.0554369531e+05
    1.3065092266e-02    1.0509478906e+05
    1.3086837716e-02    1.0460691406e+05
    1.3108605519e-02    1.0409375000e+05
    1.3130392879e-02    1.0358177344e+05
    1.3152201660e-02    1.0310168750e+05
    1.3174032792e-02    1.0266750000e+05
    1.3195885345e-02    1.0229982031e+05
    1.3217759319e-02    1.0199472656e+05
    1.3239653781e-02    1.0175683594e+05
    1.3261569664e-02    1.0157227344e+05
    1.3283506967e-02    1.0142644531e+05
    1.3305463828e-02    1.0131605469e+05
    1.3327440247e-02    1.0122790625e+05
    1.3349435292e-02    1.0116183594e+05
    1.3371448033e-02    1.0110652344e+05
    1.3393475674e-02    1.0105787500e+05
    1.3415516354e-02    1.0101550000e+05
    1.3437564485e-02    1.0096966406e+05
    1.3459613547e-02    1.0092582031e+05
    1.3481658883e-02    1.0088842969e+05
    1.3503690250e-02    1.0086113281e+05
    1.3525702059e-02    1.0083444531e+05
    1.3547683135e-02    1.0080492969e+05
    1.3569628820e-02    1.0076913281e+05
    1.3591531664e-02    1.0072533594e+05
    1.3613392599e-02    1.0066578906e+05
    1.3635210693e-02    1.0058997656e+05
    1.3656994328e-02    1.0050722656e+05
    1.3678749092e-02    1.0040864844e+05
    1.3700488023e-02    1.0030014844e+05
    1.3722228818e-02    1.0019234375e+05
    1.3743981719e-02    1.0009442969e+05
    1.3765762560e-02    1.0001503906e+05
    1.3787578791e-02    9.9966476562e+04
    1.3809437864e-02    9.9952218750e+04
    1.3831341639e-02    9.9974085938e+04
    1.3853288256e-02    1.0002400000e+05
    1.3875273056e-02    1.0009469531e+05
    1.3897285797e-02    1.0017884375e+05
    1.3919321820e-02    1.0026871094e+05
    1.3941374607e-02    1.0034491406e+05
    1.3963440433e-02    1.0041050781e+05
    1.3985517435e-02    1.0046071094e+05
    1.4007603750e-02    1.0049964844e+05
    1.4029704034e-02    1.0053747656e+05
    1.4051820152e-02    1.0057783594e+05
    1.4073957689e-02    1.0063374219e+05
    1.4096121304e-02    1.0070158594e+05
    1.4118315652e-02    1.0077696094e+05
    1.4140545391e-02    1.0086827344e+05
    1.4162814245e-02    1.0096253906e+05
    1.4185124077e-02    1.0106262500e+05
    1.4207473956e-02    1.0116485156e+05
    1.4229862019e-02    1.0125431250e+05
    1.4252286404e-02    1.0133047656e+05
    1.4274741523e-02    1.0139410156e+05
    1.4297228307e-02    1.0143677344e+05
    1.4319745824e-02    1.0147308594e+05
    1.4342290349e-02    1.0150385156e+05
    1.4364863746e-02    1.0152936719e+05
    1.4387467876e-02    1.0153681250e+05
    1.4410103671e-02    1.0154314844e+05
    1.4432771131e-02    1.0153899219e+05
    1.4455472119e-02    1.0153096875e+05
    1.4478209428e-02    1.0151008594e+05
    1.4500979334e-02    1.0148310156e+05
    1.4523783699e-02    1.0144741406e+05
    1.4546621591e-02    1.0139702344e+05
    1.4569494873e-02    1.0133975781e+05
    1.4592399821e-02    1.0127397656e+05
    1.4615339227e-02    1.0119706250e+05
    1.4638305642e-02    1.0111003906e+05
    1.4661304653e-02    1.0102916406e+05
    1.4684336260e-02    1.0094606250e+05
    1.4707398601e-02    1.0087214844e+05
    1.4730494469e-02    1.0079878906e+05
    1.4753622934e-02    1.0073524219e+05
    1.4776783995e-02    1.0067359375e+05
    1.4799979515e-02    1.0062628906e+05
    1.4823205769e-02    1.0059235156e+05
    1.4846466482e-02    1.0056636719e+05
    1.4869757928e-02    1.0055547656e+05
    1.4893081971e-02    1.0055744531e+05
    1.4916437678e-02    1.0056763281e+05
    1.4939822257e-02    1.0057632031e+05
    1.4963239431e-02    1.0059632031e+05
    1.4986685477e-02    1.0062058594e+05
    1.5010161325e-02    1.0065085156e+05
    1.5033668838e-02    1.0068333594e+05
    1.5057205223e-02    1.0071335156e+05
    1.5080772340e-02    1.0073861719e+05
    1.5104367398e-02    1.0075389844e+05
    1.5127992257e-02    1.0076605469e+05
    1.5151646920e-02    1.0077102344e+05
    1.5175330453e-02    1.0076599219e+05
    1.5199041925e-02    1.0075134375e+05
    1.5222782269e-02    1.0072807031e+05
    1.5246548690e-02    1.0069172656e+05
    1.5270343982e-02    1.0065475000e+05
    1.5294168144e-02    1.0061646875e+05
    1.5318016522e-02    1.0058196094e+05
    1.5341891907e-02    1.0055118750e+05
    1.5365792438e-02    1.0051435156e+05
    1.5389721841e-02    1.0047853906e+05
    1.5413676389e-02    1.0044871094e+05
    1.5437657945e-02    1.0041971094e+05
    1.5461664647e-02    1.0040363281e+05
    1.5485695563e-02    1.0038427344e+05
    1.5509752557e-02    1.0037289844e+05
    1.5533835627e-02    1.0035240625e+05
    1.5557944775e-02    1.0033135156e+05
    1.5582079068e-02    1.0031014844e+05
    1.5606240369e-02    1.0028646094e+05
    1.5630424023e-02    1.0025746094e+05
    1.5654634684e-02    1.0022228906e+05
    1.5678871423e-02    1.0018233594e+05
    1.5703132376e-02    1.0013858594e+05
    1.5727419406e-02    1.0009602344e+05
    1.5751728788e-02    1.0005799219e+05
    1.5776060522e-02    1.0002299219e+05
    1.5800418332e-02    9.9986250000e+04
    1.5824800357e-02    9.9945476562e+04
    1.5849204734e-02    9.9903523438e+04
    1.5873633325e-02    9.9871414062e+04
    1.5898084268e-02    9.9841476562e+04
    1.5922557563e-02    9.9816679688e+04
    1.5947058797e-02    9.9792695312e+04
    1.5971582383e-02    9.9763601562e+04
    1.5996130183e-02    9.9746039062e+04
    1.6020702198e-02    9.9729929688e+04
    1.6045298427e-02    9.9717148438e+04
    1.6069920734e-02    9.9700914062e+04
    1.6094569117e-02    9.9691281250e+04
    1.6119243577e-02    9.9687039062e+04
    1.6143942252e-02    9.9685898438e+04
    1.6168667004e-02    9.9688031250e+04
    1.6193419695e-02    9.9696976562e+04
    1.6218200326e-02    9.9703968750e+04
    1.6243007034e-02    9.9712710938e+04
    1.6267839819e-02    9.9723000000e+04
    1.6292702407e-02    9.9736382812e+04
    1.6317596659e-02    9.9762351562e+04
    1.6342513263e-02    9.9789085938e+04
    1.6367461532e-02    9.9829148438e+04
    1.6392435879e-02    9.9869679688e+04
    1.6417443752e-02    9.9914273438e+04
    1.6442479566e-02    9.9967195312e+04
    1.6467543319e-02    1.0002539844e+05
    1.6492636874e-02    1.0008177344e+05
    1.6517756507e-02    1.0014272656e+05
    1.6542907804e-02    1.0020143750e+05
    1.6568088904e-02    1.0026130469e+05
    1.6593271866e-02    1.0032603125e+05
    1.6618426889e-02    1.0038164844e+05
    1.6643559560e-02    1.0042802344e+05
    1.6668669879e-02    1.0047658594e+05
    1.6693757847e-02    1.0052538281e+05
    1.6718825325e-02    1.0057850781e+05
    1.6743874177e-02    1.0062603906e+05
    1.6768900678e-02    1.0068158594e+05
    1.6793908551e-02    1.0072967969e+05
    1.6818899661e-02    1.0078150781e+05
    1.6843874007e-02    1.0083202344e+05
    1.6868829727e-02    1.0087682031e+05
    1.6893770546e-02    1.0092207031e+05
    1.6918692738e-02    1.0097014844e+05
    1.6943598166e-02    1.0100750781e+05
    1.6968490556e-02    1.0104216406e+05
    1.6993366182e-02    1.0107517969e+05
    1.7018226907e-02    1.0110507031e+05
    1.7043072730e-02    1.0112928906e+05
    1.7067901790e-02    1.0114521875e+05
    1.7092714086e-02    1.0116899219e+05
    1.7117511481e-02    1.0118422656e+05
    1.7142292112e-02    1.0120841406e+05
    1.7167057842e-02    1.0122696875e+05
    1.7191808671e-02    1.0124425781e+05
    1.7216544598e-02    1.0127111719e+05
    1.7241263762e-02    1.0129832031e+05
    1.7265968025e-02    1.0132853125e+05
    1.7290659249e-02    1.0136121094e+05
    1.7315333709e-02    1.0139341406e+05
    1.7339993268e-02    1.0142542969e+05
    1.7364639789e-02    1.0146266406e+05
    1.7389267683e-02    1.0149406250e+05
    1.7413880676e-02    1.0152514844e+05
    1.7438478768e-02    1.0155212500e+05
    1.7463061959e-02    1.0157989844e+05
    1.7487626523e-02    1.0160090625e+05
    1.7512176186e-02    1.0162046875e+05
    1.7536709085e-02    1.0163963281e+05
    1.7561223358e-02    1.0165697656e+05
    1.7585720867e-02    1.0167202344e+05
    1.7610201612e-02    1.0168100781e+05
    1.7634663731e-02    1.0168872656e+05
    1.7659107223e-02    1.0169974219e+05
    1.7683532089e-02    1.0170977344e+05
    1.7707940191e-02    1.0172315625e+05
    1.7732329667e-02    1.0173928125e+05
    1.7756698653e-02    1.0176090625e+05
    1.7781050876e-02    1.0178414844e+05
    1.7805384472e-02    1.0180800000e+05
    1.7829699442e-02    1.0183684375e+05
    1.7853999510e-02    1.0186083594e+05
    1.7878280953e-02    1.0189521875e+05
    1.7902545631e-02    1.0193187500e+05
    1.7926793545e-02    1.0196094531e+05
    1.7951028422e-02    1.0199733594e+05
    1.7975246534e-02    1.0203662500e+05
    1.7999447882e-02    1.0207646094e+05
    1.8023636192e-02    1.0211678906e+05
    1.8047811463e-02    1.0216171875e+05
    1.8071975559e-02    1.0221177344e+05
    1.8096126616e-02    1.0225938281e+05
    1.8120266497e-02    1.0231178125e+05
    1.8144397065e-02    1.0235931250e+05
    1.8168520182e-02    1.0241752344e+05
    1.8192630261e-02    1.0248614844e+05
    1.8216732889e-02    1.0255052344e+05
    1.8240824342e-02    1.0262667969e+05
    1.8264908344e-02    1.0270906250e+05
    1.8288983032e-02    1.0280016406e+05
    1.8313048407e-02    1.0290471875e+05
    1.8337102607e-02    1.0301790625e+05
    1.8361147493e-02    1.0313605469e+05
    1.8385183066e-02    1.0326266406e+05
    1.8409207463e-02    1.0338991406e+05
    1.8433224410e-02    1.0351127344e+05
    1.8457230181e-02    1.0362559375e+05
    1.8481226638e-02    1.0371666406e+05
    1.8505210057e-02    1.0378200000e+05
    1.8529184163e-02    1.0381722656e+05
    1.8553148955e-02    1.0382877344e+05
    1.8577100709e-02    1.0379728906e+05
    1.8601041287e-02    1.0373835156e+05
    1.8624972552e-02    1.0363252344e+05
    1.8648892641e-02    1.0349235156e+05
    1.8672801554e-02    1.0331153906e+05
    1.8696699291e-02    1.0309725781e+05
    1.8720587716e-02    1.0284639844e+05
    1.8744463101e-02    1.0256659375e+05
    1.8768329173e-02    1.0228378906e+05
    1.8792184070e-02    1.0199314844e+05
    1.8816027790e-02    1.0171992969e+05
    1.8839860335e-02    1.0146417969e+05
    1.8863683566e-02    1.0124055469e+05
    1.8887493759e-02    1.0105133594e+05
    1.8911294639e-02    1.0089168750e+05
    1.8935086206e-02    1.0076933594e+05
    1.8958866596e-02    1.0067999219e+05
    1.8982635811e-02    1.0062678906e+05
    1.9006397575e-02    1.0060092969e+05
    1.9030146301e-02    1.0059577344e+05
    1.9053885713e-02    1.0060639844e+05
    1.9077615812e-02    1.0062396875e+05
    1.9101334736e-02    1.0065453125e+05
    1.9125042483e-02    1.0069250000e+05
    1.9148740917e-02    1.0074210156e+05
    1.9172428176e-02    1.0078778906e+05
    1.9196104258e-02    1.0084152344e+05
    1.9219771028e-02    1.0089591406e+05
    1.9243424758e-02    1.0095333594e+05
    1.9267069176e-02    1.0100935156e+05
    1.9290700555e-02    1.0105741406e+05
    1.9314322621e-02    1.0110752344e+05
    1.9337931648e-02    1.0115422656e+05
    1.9361529499e-02    1.0120034375e+05
    1.9385114312e-02    1.0124389844e+05
    1.9408687949e-02    1.0128746875e+05
    1.9432250410e-02    1.0132425781e+05
    1.9455801696e-02    1.0135414844e+05
    1.9479339942e-02    1.0139352344e+05
    1.9502865151e-02    1.0143838281e+05
    1.9526379183e-02    1.0149172656e+05
    1.9549878314e-02    1.0155185156e+05
    1.9573366269e-02    1.0161975781e+05
    1.9596841186e-02    1.0168721094e+05
    1.9620303065e-02    1.0175672656e+05
    1.9643751904e-02    1.0182912500e+05
    1.9667187706e-02    1.0190010156e+05
    1.9690606743e-02    1.0197264844e+05
    1.9714014605e-02    1.0203835156e+05
    1.9737409428e-02    1.0210410156e+05
    1.9760791212e-02    1.0215440625e+05
    1.9784159958e-02    1.0220400000e+05
    1.9807513803e-02    1.0224647656e+05
    1.9830854610e-02    1.0228796875e+05
    1.9854182377e-02    1.0232460156e+05
    1.9877497107e-02    1.0235800000e+05
    1.9900798798e-02    1.0239044531e+05
    1.9924087450e-02    1.0240881250e+05
    1.9947361201e-02    1.0242090625e+05
    1.9970623776e-02    1.0243633594e+05
    1.9993871450e-02    1.0244228906e+05
    2.0017107949e-02    1.0244467969e+05
    2.0040329546e-02    1.0244842969e+05
    2.0063538104e-02    1.0243899219e+05
    2.0086731762e-02    1.0242600000e+05
    2.0109914243e-02    1.0240989844e+05
    2.0133081824e-02    1.0239447656e+05
    2.0156236365e-02    1.0237231250e+05
    2.0179376006e-02    1.0235669531e+05
    2.0202504471e-02    1.0233596875e+05
    2.0225618035e-02    1.0232014844e+05
    2.0248720422e-02    1.0230155469e+05
    2.0271807909e-02    1.0228419531e+05
    2.0294882357e-02    1.0225971094e+05
    2.0317947492e-02    1.0224025781e+05
    2.0340997726e-02    1.0222466406e+05
    2.0364036784e-02    1.0220950781e+05
    2.0387060940e-02    1.0220338281e+05
    2.0410073921e-02    1.0219121875e+05
    2.0433073863e-02    1.0217660156e+05
    2.0456060767e-02    1.0216583594e+05
    2.0479036495e-02    1.0215816406e+05
    2.0501999184e-02    1.0215071094e+05
    2.0524948835e-02    1.0214009375e+05
    2.0547885448e-02    1.0214053906e+05
    2.0570809022e-02    1.0213572656e+05
    2.0593719557e-02    1.0213141406e+05
    2.0616617054e-02    1.0213335156e+05
    2.0639499649e-02    1.0212903125e+05
    2.0662369207e-02    1.0212037500e+05
    2.0685223863e-02    1.0211581250e+05
    2.0708063617e-02    1.0211521875e+05
    2.0730890334e-02    1.0210891406e+05
    2.0753700286e-02    1.0209921094e+05
    2.0776495337e-02    1.0209777344e+05
    2.0799275488e-02    1.0208772656e+05
    2.0822042599e-02    1.0208678906e+05
    2.0844791085e-02    1.0208024219e+05
    2.0867524669e-02    1.0207416406e+05
    2.0890241489e-02    1.0206258594e+05
    2.0912945271e-02    1.0205485156e+05
    2.0935632288e-02    1.0204794531e+05
    2.0958306268e-02    1.0203611719e+05
    2.0980965346e-02    1.0202610156e+05
    2.1003607661e-02    1.0201049219e+05
    2.1026238799e-02    1.0200128906e+05
    2.1048855036e-02    1.0199178906e+05
    2.1071458235e-02    1.0197681250e+05
    2.1094048396e-02    1.0196640625e+05
    2.1116625518e-02    1.0195812500e+05
    2.1139191464e-02    1.0194141406e+05
    2.1161744371e-02    1.0192797656e+05
    2.1184286103e-02    1.0191031250e+05
    2.1206818521e-02    1.0189092969e+05
    2.1229337901e-02    1.0187613281e+05
    2.1251846105e-02    1.0187189844e+05
    2.1274344996e-02    1.0185878906e+05
    2.1296832711e-02    1.0184535156e+05
    2.1319312975e-02    1.0183158594e+05
    2.1341778338e-02    1.0180950781e+05
    2.1364232525e-02    1.0179683594e+05
    2.1386675537e-02    1.0179109375e+05
    2.1409107372e-02    1.0178099219e+05
    2.1431528032e-02    1.0176966406e+05
    2.1453931928e-02    1.0176656250e+05
    2.1476324648e-02    1.0175414844e+05
    2.1498700604e-02    1.0173516406e+05
    2.1521063522e-02    1.0173025000e+05
    2.1543409675e-02    1.0172014844e+05
    2.1565740928e-02    1.0171936719e+05
    2.1588053554e-02    1.0171233594e+05
    2.1610351279e-02    1.0170364844e+05
    2.1632634103e-02    1.0169083594e+05
    2.1654898301e-02    1.0168243750e+05
    2.1677147597e-02    1.0168309375e+05
    2.1699378267e-02    1.0167471094e+05
    2.1721594036e-02    1.0167622656e+05
    2.1743793041e-02    1.0166747656e+05
    2.1765975282e-02    1.0166028125e+05
    2.1788140759e-02    1.0164712500e+05
    2.1810289472e-02    1.0163624219e+05
    2.1832419559e-02    1.0162984375e+05
    2.1854531020e-02    1.0162814844e+05
    2.1876627579e-02    1.0162211719e+05
    2.1898705512e-02    1.0161299219e+05
    2.1920768544e-02    1.0160349219e+05
    2.1942811087e-02    1.0158950000e+05
    2.1964838728e-02    1.0158003906e+05
    2.1986849606e-02    1.0156830469e+05
    2.2008845583e-02    1.0155515625e+05
    2.2030822933e-02    1.0154809375e+05
    2.2052785382e-02    1.0153950781e+05
    2.2074732929e-02    1.0152546094e+05
    2.2096665576e-02    1.0150919531e+05
    2.2118583322e-02    1.0149721094e+05
    2.2140489891e-02    1.0147447656e+05
    2.2162377834e-02    1.0146056250e+05
    2.2184254602e-02    1.0144650000e+05
    2.2206118330e-02    1.0144216406e+05
    2.2227969021e-02    1.0143506250e+05
    2.2249806672e-02    1.0143805469e+05
    2.2271629423e-02    1.0143983594e+05
    2.2293440998e-02    1.0143583594e+05
    2.2315241396e-02    1.0144561719e+05
    2.2337028757e-02    1.0145643750e+05
    2.2358803079e-02    1.0147486719e+05
    2.2380566224e-02    1.0149133594e+05
    2.2402318195e-02    1.0151102344e+05
    2.2424057126e-02    1.0153272656e+05
    2.2445784882e-02    1.0155627344e+05
    2.2467501462e-02    1.0158096875e+05
    2.2489206865e-02    1.0160639844e+05
    2.2510899231e-02    1.0163362500e+05
    2.2532582283e-02    1.0166369531e+05
    2.2554252297e-02    1.0168710156e+05
    2.2575911134e-02    1.0170909375e+05
    2.2597560659e-02    1.0172925000e+05
    2.2619199008e-02    1.0174903125e+05
    2.2640828043e-02    1.0176640625e+05
    2.2662445903e-02    1.0177840625e+05
    2.2684050724e-02    1.0178400000e+05
    2.2705646232e-02    1.0179699219e+05
    2.2727232426e-02    1.0180014844e+05
    2.2748809308e-02    1.0180885156e+05
    2.2770375013e-02    1.0181133594e+05
    2.2791929543e-02    1.0181453906e+05
    2.2813472897e-02    1.0181272656e+05
    2.2835006937e-02    1.0180858594e+05
    2.2856531665e-02    1.0180377344e+05
    2.2878047079e-02    1.0180583594e+05
    2.2899549454e-02    1.0180310156e+05
    2.2921044379e-02    1.0180093750e+05
    2.2942528129e-02    1.0180085156e+05
    2.2964000702e-02    1.0179216406e+05
    2.2985465825e-02    1.0179350000e+05
    2.3006917909e-02    1.0178328906e+05
    2.3028360680e-02    1.0178202344e+05
    2.3049792275e-02    1.0177425781e+05
    2.3071214557e-02    1.0177293750e+05
    2.3092625663e-02    1.0176127344e+05
    2.3114029318e-02    1.0175639844e+05
    2.3135419935e-02    1.0175209375e+05
    2.3156799376e-02    1.0174508594e+05
    2.3178169504e-02    1.0173296875e+05
    2.3199530318e-02    1.0172739844e+05
    2.3220879957e-02    1.0172558594e+05
    2.3242218420e-02    1.0171452344e+05
    2.3263547570e-02    1.0170702344e+05
    2.3284865543e-02    1.0169963281e+05
    2.3306174204e-02    1.0169240625e+05
    2.3327469826e-02    1.0168183594e+05
    2.3348756135e-02    1.0167547656e+05
    2.3370031267e-02    1.0166666406e+05
    2.3391297087e-02    1.0165710156e+05
    2.3412553594e-02    1.0164971094e+05
    2.3433798924e-02    1.0164617969e+05
    2.3455033079e-02    1.0164147656e+05
    2.3476256058e-02    1.0162996094e+05
    2.3497469723e-02    1.0162175000e+05
    2.3518672213e-02    1.0162346094e+05
    2.3539865389e-02    1.0161266406e+05
    2.3561049253e-02    1.0161135156e+05
    2.3582221940e-02    1.0160913281e+05
    2.3603385314e-02    1.0160483594e+05
    2.3624535650e-02    1.0159990625e+05
    2.3645676672e-02    1.0159033594e+05
    2.3666808382e-02    1.0158964844e+05
    2.3687927052e-02    1.0158597656e+05
    2.3709038273e-02    1.0159221875e+05
    2.3730138317e-02    1.0159853906e+05
    2.3751227185e-02    1.0159597656e+05
    2.3772306740e-02    1.0158849219e+05
    2.3793375120e-02    1.0158109375e+05
    2.3814432323e-02    1.0158839844e+05
    2.3835480213e-02    1.0158713281e+05
    2.3856516927e-02    1.0159577344e+05
    2.3877544329e-02    1.0160522656e+05
    2.3898560554e-02    1.0160546094e+05
    2.3919565603e-02    1.0160996094e+05
    2.3940561339e-02    1.0161083594e+05
    2.3961545900e-02    1.0160531250e+05
    2.3982519284e-02    1.0161485156e+05
    2.4003483355e-02    1.0161566406e+05
    2.4024436250e-02    1.0161932031e+05
    2.4045377970e-02    1.0162817969e+05
    2.4066310376e-02    1.0163646094e+05
    2.4087233469e-02    1.0164121875e+05
    2.4108145386e-02    1.0165442969e+05
    2.4129044265e-02    1.0166253906e+05
    2.4149935693e-02    1.0167118750e+05
    2.4170814082e-02    1.0168572656e+05
    2.4191683158e-02    1.0169869531e+05
    2.4212542921e-02    1.0170777344e+05
    2.4233391508e-02    1.0172490625e+05
    2.4254228920e-02    1.0173775000e+05
    2.4275057018e-02    1.0175125781e+05
    2.4295873940e-02    1.0177053906e+05
    2.4316681549e-02    1.0178109375e+05
    2.4337477982e-02    1.0179077344e+05
    2.4358265102e-02    1.0180800000e+05
    2.4379042909e-02    1.0181260156e+05
    2.4399809539e-02    1.0182269531e+05
    2.4420566857e-02    1.0183263281e+05
    2.4441312999e-02    1.0183750781e+05
    2.4462047964e-02    1.0184192969e+05
    2.4482775480e-02    1.0183309375e+05
    2.4503491819e-02    1.0182494531e+05
    2.4524198845e-02    1.0181328125e+05
    2.4544894695e-02    1.0179685156e+05
    2.4565581232e-02    1.0177833594e+05
    2.4586258456e-02    1.0175759375e+05
    2.4606924504e-02    1.0172867969e+05
    2.4627581239e-02    1.0170021875e+05
    2.4648228660e-02    1.0166553906e+05
    2.4668866768e-02    1.0162777344e+05
    2.4689495564e-02    1.0159663281e+05
    2.4710113183e-02    1.0155194531e+05
    2.4730721489e-02    1.0151565625e+05
    2.4751318619e-02    1.0148627344e+05
    2.4771906435e-02    1.0146814844e+05
    2.4792486802e-02    1.0144821094e+05
    2.4813055992e-02    1.0143957031e+05
    2.4833614007e-02    1.0143487500e+05
    2.4854162708e-02    1.0144086719e+05
    2.4874702096e-02    1.0145627344e+05
    2.4895232171e-02    1.0147137500e+05
    2.4915752932e-02    1.0150191406e+05
    2.4936262518e-02    1.0153256250e+05
    2.4956764653e-02    1.0157197656e+05
    2.4977253750e-02    1.0161916406e+05
    2.4997735396e-02    1.0165803906e+05
    2.5018205866e-02    1.0170061719e+05
    2.5038668886e-02    1.0174058594e+05
    2.5059120730e-02    1.0177975781e+05
    2.5079563260e-02    1.0181557031e+05
    2.5099996477e-02    1.0184977344e+05
    2.5120420381e-02    1.0188032031e+05
    2.5140833110e-02    1.0190508594e+05
    2.5161236525e-02    1.0192746875e+05
    2.5181630626e-02    1.0194431250e+05
    2.5202017277e-02    1.0196158594e+05
    2.5222390890e-02    1.0197853906e+05
    2.5242757052e-02    1.0198521094e+05
    2.5263112038e-02    1.0198947656e+05
    2.5283459574e-02    1.0200053906e+05
    2.5303795934e-02    1.0200159375e+05
    2.5324124843e-02    1.0200047656e+05
    2.5344440714e-02    1.0199841406e+05
    2.5364749134e-02    1.0200036719e+05
    2.5385048240e-02    1.0200103125e+05
    2.5405339897e-02    1.0199683594e+05
    2.5425618514e-02    1.0200097656e+05
    2.5445887819e-02    1.0199678125e+05
    2.5466147810e-02    1.0199491406e+05
    2.5486400351e-02    1.0199384375e+05
    2.5506639853e-02    1.0198815625e+05
    2.5526873767e-02    1.0198653906e+05
    2.5547094643e-02    1.0198193750e+05
    2.5567308068e-02    1.0198024219e+05
    2.5587510318e-02    1.0197541406e+05
    2.5607703254e-02    1.0197955469e+05
    2.5627886876e-02    1.0197641406e+05
    2.5648061186e-02    1.0198388281e+05
    2.5668226182e-02    1.0198553125e+05
    2.5688380003e-02    1.0198741406e+05
    2.5708526373e-02    1.0199378906e+05
    2.5728661567e-02    1.0199157031e+05
    2.5748789310e-02    1.0199796094e+05
    2.5768904015e-02    1.0199477344e+05
    2.5789011270e-02    1.0200027344e+05
    2.5809109211e-02    1.0200471094e+05
    2.5829195976e-02    1.0200521875e+05
    2.5849273428e-02    1.0200992969e+05
    2.5869343430e-02    1.0200212500e+05
    2.5889402255e-02    1.0200292969e+05
    2.5909451768e-02    1.0199765625e+05
    2.5929493830e-02    1.0199113281e+05
    2.5949522853e-02    1.0198491406e+05
    2.5969544426e-02    1.0198102344e+05
    2.5989556685e-02    1.0197236719e+05
    2.6009559631e-02    1.0196380469e+05
    2.6029553264e-02    1.0195409375e+05
    2.6049537584e-02    1.0194202344e+05
    2.6069512591e-02    1.0192900000e+05
    2.6089478284e-02    1.0192177344e+05
    2.6109432802e-02    1.0191403125e+05
    2.6129379869e-02    1.0189621094e+05
    2.6149315760e-02    1.0188860156e+05
    2.6169244200e-02    1.0188240625e+05
    2.6189163327e-02    1.0187843750e+05
    2.6209073141e-02    1.0187353906e+05
    2.6228975505e-02    1.0186746094e+05
    2.6248866692e-02    1.0186384375e+05
    2.6268748567e-02    1.0186291406e+05
    2.6288621128e-02    1.0186341406e+05
    2.6308484375e-02    1.0185978906e+05
    2.6328338310e-02    1.0185653906e+05
    2.6348184794e-02    1.0186063281e+05
    2.6368021965e-02    1.0186042969e+05
    2.6387847960e-02    1.0186250781e+05
    2.6407664642e-02    1.0186041406e+05
    2.6427472010e-02    1.0185993750e+05
    2.6447271928e-02    1.0186314844e+05
    2.6467062533e-02    1.0186759375e+05
    2.6486843824e-02    1.0186652344e+05
    2.6506617665e-02    1.0187168750e+05
    2.6526380330e-02    1.0187593750e+05
    2.6546133682e-02    1.0187716406e+05
    2.6565877721e-02    1.0187847656e+05
    2.6585612446e-02    1.0187310156e+05
    2.6605339721e-02    1.0187283594e+05
    2.6625057682e-02    1.0187077344e+05
    2.6644766331e-02    1.0186908594e+05
    2.6664465666e-02    1.0187325781e+05
    2.6684155688e-02    1.0187105469e+05
    2.6703836396e-02    1.0187214844e+05
    2.6723509654e-02    1.0187253125e+05
    2.6743173599e-02    1.0186711719e+05
    2.6762828231e-02    1.0186088281e+05
    2.6782475412e-02    1.0186362500e+05
    2.6802113280e-02    1.0186807031e+05
    2.6821739972e-02    1.0186765625e+05
    2.6841359213e-02    1.0186642969e+05
    2.6860967278e-02    1.0186759375e+05
    2.6880569756e-02    1.0187010156e+05
    2.6900164783e-02    1.0187724219e+05
    2.6919748634e-02    1.0187760156e+05
    2.6939325035e-02    1.0187912500e+05
    2.6958892122e-02    1.0188003906e+05
    2.6978449896e-02    1.0187983594e+05
    2.6997998357e-02    1.0187983594e+05
    2.7017539367e-02    1.0188062500e+05
    2.7037071064e-02    1.0188515625e+05
    2.7056595311e-02    1.0188211719e+05
    2.7076110244e-02    1.0189028125e+05
    2.7095617726e-02    1.0189507031e+05
    2.7115115896e-02    1.0189778125e+05
    2.7134604752e-02    1.0189241406e+05
    2.7154086158e-02    1.0190087500e+05
    2.7173558250e-02    1.0190128125e+05
    2.7193021029e-02    1.0190225781e+05
    2.7212476358e-02    1.0190437500e+05
    2.7231922373e-02    1.0190653906e+05
    2.7251357213e-02    1.0190360156e+05
    2.7270786464e-02    1.0191028125e+05
    2.7290204540e-02    1.0191384375e+05
    2.7309613302e-02    1.0191650781e+05
    2.7329014614e-02    1.0191891406e+05
    2.7348404750e-02    1.0192805469e+05
    2.7367785573e-02    1.0193685156e+05
    2.7387158945e-02    1.0194181250e+05
    2.7406521142e-02    1.0194691406e+05
    2.7425874025e-02    1.0195186719e+05
    2.7445219457e-02    1.0195489844e+05
    2.7464553714e-02    1.0195886719e+05
    2.7483878657e-02    1.0195277344e+05
    2.7503194287e-02    1.0195644531e+05
    2.7522502467e-02    1.0196906250e+05
    2.7541799471e-02    1.0197260156e+05
    2.7561087161e-02    1.0197094531e+05
    2.7580365539e-02    1.0197061719e+05
    2.7599634603e-02    1.0198109375e+05
    2.7618894354e-02    1.0197428906e+05
    2.7638144791e-02    1.0197657031e+05
    2.7657385916e-02    1.0197872656e+05
    2.7676619589e-02    1.0198131250e+05
    2.7695843950e-02    1.0198122656e+05
    2.7715058997e-02    1.0197547656e+05
    2.7734262869e-02    1.0197646094e+05
    2.7753459290e-02    1.0197810156e+05
    2.7772648260e-02    1.0197983594e+05
    2.7791827917e-02    1.0198402344e+05
    2.7810998261e-02    1.0198637500e+05
    2.7830159292e-02    1.0198234375e+05
    2.7849311009e-02    1.0198421094e+05
    2.7868455276e-02    1.0197900000e+05
    2.7887590230e-02    1.0197450000e+05
    2.7906717733e-02    1.0197358594e+05
    2.7925835922e-02    1.0197511719e+05
    2.7944946662e-02    1.0198015625e+05
    2.7964048088e-02    1.0198675781e+05
    2.7983140200e-02    1.0198367969e+05
    2.8002224863e-02    1.0197978906e+05
    2.8021300212e-02    1.0198391406e+05
    2.8040368110e-02    1.0198882031e+05
    2.8059426695e-02    1.0199066406e+05
    2.8078475967e-02    1.0198621875e+05
    2.8097519651e-02    1.0198253906e+05
    2.8116554022e-02    1.0198412500e+05
    2.8135580942e-02    1.0199191406e+05
    2.8154598549e-02    1.0198817969e+05
    2.8173606843e-02    1.0198705469e+05
    2.8192607686e-02    1.0199208594e+05
    2.8211599216e-02    1.0198958594e+05
    2.8230583295e-02    1.0198539844e+05
    2.8249559924e-02    1.0198925781e+05
    2.8268527240e-02    1.0198966406e+05
    2.8287487105e-02    1.0198550000e+05
    2.8306435794e-02    1.0199510156e+05
    2.8325378895e-02    1.0198869531e+05
    2.8344312683e-02    1.0198725781e+05
    2.8363237157e-02    1.0199632031e+05
    2.8382156044e-02    1.0199690625e+05
    2.8401065618e-02    1.0199762500e+05
    2.8419965878e-02    1.0199817969e+05
    2.8438858688e-02    1.0199052344e+05
    2.8457742184e-02    1.0199888281e+05
    2.8476616368e-02    1.0199933594e+05
    2.8495483100e-02    1.0199638281e+05
    2.8514338657e-02    1.0199677344e+05
    2.8533160686e-02    1.0200071875e+05
    2.8551930562e-02    1.0200260156e+05
    2.8570635244e-02    1.0200352344e+05
    2.8589271009e-02    1.0200471094e+05
    2.8607837856e-02    1.0201089844e+05
    2.8626350686e-02    1.0201028906e+05
    2.8644818813e-02    1.0201772656e+05
    2.8663259000e-02    1.0201584375e+05
    2.8681686148e-02    1.0201647656e+05
    2.8700113297e-02    1.0201582031e+05
    2.8718546033e-02    1.0201733594e+05
    2.8736986220e-02    1.0201749219e+05
    2.8755431995e-02    1.0201865625e+05
    2.8773877770e-02    1.0201996875e+05
    2.8792314231e-02    1.0202244531e+05
    2.8810730204e-02    1.0202344531e+05
    2.8829116374e-02    1.0203041406e+05
    2.8847465292e-02    1.0202750781e+05
    2.8865773231e-02    1.0202912500e+05
    2.8884036466e-02    1.0203082031e+05
    2.8902258724e-02    1.0203372656e+05
    2.8920443729e-02    1.0203427344e+05
    2.8938598931e-02    1.0203581250e+05
    2.8956729919e-02    1.0203733594e+05
    2.8974846005e-02    1.0203877344e+05
    2.8992949054e-02    1.0203994531e+05
    2.9011042789e-02    1.0204046875e+05
    2.9029129073e-02    1.0204100781e+05
    2.9047204182e-02    1.0204302344e+05
    2.9065268114e-02    1.0204156250e+05
    2.9083315283e-02    1.0204347656e+05
    2.9101338238e-02    1.0204424219e+05
    2.9119335115e-02    1.0203933594e+05
    2.9137304053e-02    1.0204700781e+05
    2.9155241325e-02    1.0204803125e+05
    2.9173148796e-02    1.0204852344e+05
    2.9191024601e-02    1.0204912500e+05
    2.9208874330e-02    1.0205036719e+05
    2.9226697981e-02    1.0205158594e+05
    2.9244501144e-02    1.0205328906e+05
    2.9262285680e-02    1.0205377344e+05
    2.9280053452e-02    1.0205344531e+05
    2.9297806323e-02    1.0205067969e+05
    2.9315544292e-02    1.0204525000e+05
    2.9333265498e-02    1.0204678125e+05
    2.9350971803e-02    1.0204719531e+05
    2.9368655756e-02    1.0204652344e+05
    2.9386319220e-02    1.0204702344e+05
    2.9403960332e-02    1.0204746875e+05
    2.9421577230e-02    1.0204771094e+05
    2.9439168051e-02    1.0204271875e+05
    2.9456734657e-02    1.0204205469e+05
    2.9474277049e-02    1.0203809375e+05
    2.9491795227e-02    1.0203631250e+05
    2.9509292915e-02    1.0203453125e+05
    2.9526771978e-02    1.0203960156e+05
    2.9544232413e-02    1.0203857031e+05
    2.9561674222e-02    1.0203775000e+05
    2.9579099268e-02    1.0203253906e+05
    2.9596509412e-02    1.0203246875e+05
    2.9613900930e-02    1.0203133594e+05
    2.9631273821e-02    1.0203560156e+05
    2.9648626223e-02    1.0203977344e+05
    2.9665958136e-02    1.0203264844e+05
    2.9683271423e-02    1.0203097656e+05
    2.9700560495e-02    1.0203635156e+05
    2.9717829078e-02    1.0203983594e+05
    2.9735075310e-02    1.0203980469e+05
    2.9752301052e-02    1.0203971094e+05
    2.9769508168e-02    1.0203733594e+05
    2.9786696658e-02    1.0203246094e+05
    2.9803866521e-02    1.0203919531e+05
    2.9821017757e-02    1.0203937500e+05
    2.9838152230e-02    1.0204049219e+05
    2.9855269939e-02    1.0204875000e+05
    2.9872370884e-02    1.0205215625e+05
    2.9889453202e-02    1.0205450000e+05
    2.9906518757e-02    1.0205209375e+05
    2.9923565686e-02    1.0204825781e+05
    2.9940593988e-02    1.0204772656e+05
    2.9957601801e-02    1.0204953906e+05
    2.9974590987e-02    1.0205158594e+05
    2.9991561547e-02    1.0206207031e+05
    3.0008511618e-02    1.0206394531e+05
    3.0025444925e-02    1.0206616406e+05
    3.0042361468e-02    1.0207421094e+05
    3.0059259385e-02    1.0207903906e+05
    3.0076142401e-02    1.0207464844e+05
    3.0093006790e-02    1.0207812500e+05
    3.0109854415e-02    1.0208037500e+05
    3.0126683414e-02    1.0208256250e+05
    3.0143497512e-02    1.0208518750e+05
    3.0160292983e-02    1.0208660156e+05
    3.0177071691e-02    1.0208874219e+05
    3.0193833634e-02    1.0209090625e+05
    3.0210576952e-02    1.0209200781e+05
    3.0227303505e-02    1.0209485156e+05
    3.0244011432e-02    1.0209719531e+05
    3.0260702595e-02    1.0209899219e+05
    3.0277376994e-02    1.0210003906e+05
    3.0294034630e-02    1.0210250000e+05
    3.0310675502e-02    1.0209547656e+05
    3.0327299610e-02    1.0209659375e+05
    3.0343905091e-02    1.0209631250e+05
    3.0360495672e-02    1.0209450000e+05
    3.0377071351e-02    1.0209228906e+05
    3.0393628404e-02    1.0208649219e+05
    3.0410168692e-02    1.0208541406e+05
    3.0426690355e-02    1.0208409375e+05
    3.0443195254e-02    1.0207803906e+05
    3.0459685251e-02    1.0207214844e+05
    3.0476156622e-02    1.0207086719e+05
    3.0492611229e-02    1.0206885156e+05
    3.0509050936e-02    1.0206260156e+05
    3.0525473878e-02    1.0205692969e+05
    3.0541881919e-02    1.0205446094e+05
    3.0558273196e-02    1.0204122656e+05
    3.0574647710e-02    1.0203781250e+05
    3.0591005459e-02    1.0203231250e+05
    3.0607348308e-02    1.0201956250e+05
    3.0623674393e-02    1.0201514844e+05
    3.0639985576e-02    1.0201082031e+05
    3.0656279996e-02    1.0200897656e+05
    3.0672557652e-02    1.0201340625e+05
    3.0688818544e-02    1.0201135156e+05
    3.0705062672e-02    1.0200849219e+05
    3.0721291900e-02    1.0201117969e+05
    3.0737506226e-02    1.0201389844e+05
    3.0753703788e-02    1.0201113281e+05
    3.0769886449e-02    1.0201028125e+05
    3.0786054209e-02    1.0200927344e+05
    3.0802207068e-02    1.0201740625e+05
    3.0818343163e-02    1.0201774219e+05
    3.0834466219e-02    1.0202815625e+05
    3.0850572512e-02    1.0203896875e+05
    3.0866663903e-02    1.0205059375e+05
    3.0882738531e-02    1.0206277344e+05
    3.0898798257e-02    1.0206616406e+05
    3.0914843082e-02    1.0207094531e+05
    3.0930871144e-02    1.0207708594e+05
    3.0946886167e-02    1.0208803125e+05
    3.0962884426e-02    1.0209246094e+05
    3.0978867784e-02    1.0209708594e+05
    3.0994836241e-02    1.0210553125e+05
    3.1010789797e-02    1.0211617969e+05
    3.1026728451e-02    1.0212122656e+05
    3.1042650342e-02    1.0211569531e+05
    3.1058559194e-02    1.0212027344e+05
    3.1074455008e-02    1.0212364844e+05
    3.1090334058e-02    1.0212928906e+05
    3.1106200069e-02    1.0213377344e+05
    3.1122051179e-02    1.0213572656e+05
    3.1137887388e-02    1.0213964844e+05
    3.1153710559e-02    1.0213339844e+05
    3.1169516966e-02    1.0213635156e+05
    3.1185310334e-02    1.0213025781e+05
    3.1201090664e-02    1.0213174219e+05
    3.1216854230e-02    1.0213352344e+05
    3.1232602894e-02    1.0212980469e+05
    3.1248336658e-02    1.0212639844e+05
    3.1264055520e-02    1.0212800000e+05
    3.1279761344e-02    1.0212849219e+05
    3.1295452267e-02    1.0212946875e+05
    3.1311132014e-02    1.0213035156e+05
    3.1326796860e-02    1.0212617969e+05
    3.1342446804e-02    1.0212185156e+05
    3.1358085573e-02    1.0212166406e+05
    3.1373709440e-02    1.0211878906e+05
    3.1389318407e-02    1.0211063281e+05
    3.1404916197e-02    1.0211030469e+05
    3.1420499086e-02    1.0210939844e+05
    3.1436067075e-02    1.0210862500e+05
    3.1451620162e-02    1.0211716406e+05
    3.1467158347e-02    1.0211680469e+05
    3.1482685357e-02    1.0211305469e+05
    3.1498193741e-02    1.0210794531e+05
    3.1513694674e-02    1.0210715625e+05
    3.1529176980e-02    1.0210568750e+05
    3.1544648111e-02    1.0210543750e+05
    3.1560108066e-02    1.0210484375e+05
    3.1575553119e-02    1.0210452344e+05
    3.1590986997e-02    1.0211238281e+05
    3.1606405973e-02    1.0211471875e+05
    3.1621813774e-02    1.0210711719e+05
    3.1637206674e-02    1.0210522656e+05
    3.1652588397e-02    1.0210497656e+05
    3.1667951494e-02    1.0210946875e+05
    3.1683307141e-02    1.0211150000e+05
    3.1698647887e-02    1.0210422656e+05
    3.1713977456e-02    1.0210371094e+05
    3.1729292125e-02    1.0210300000e+05
    3.1744595617e-02    1.0210210156e+05
    3.1759884208e-02    1.0209971094e+05
    3.1775161624e-02    1.0209012500e+05
    3.1790427864e-02    1.0208724219e+05
    3.1805675477e-02    1.0208646094e+05
    3.1820915639e-02    1.0208117969e+05
    3.1836140901e-02    1.0208033594e+05
    3.1851354986e-02    1.0208066406e+05
    3.1866557896e-02    1.0207892969e+05
    3.1881745905e-02    1.0207739844e+05
    3.1896922737e-02    1.0207616406e+05
    3.1912088394e-02    1.0208452344e+05
    3.1927239150e-02    1.0208290625e+05
    3.1942378730e-02    1.0208603906e+05
    3.1957507133e-02    1.0209044531e+05
    3.1972620636e-02    1.0209303906e+05
    3.1987726688e-02    1.0208287500e+05
    3.2002814114e-02    1.0208222656e+05
    3.2017890364e-02    1.0208149219e+05
    3.2032959163e-02    1.0208064844e+05
    3.2048013061e-02    1.0207966406e+05
    3.2063052058e-02    1.0207422656e+05
    3.2078083605e-02    1.0206857031e+05
    3.2093103975e-02    1.0206814844e+05
    3.2108109444e-02    1.0207009375e+05
    3.2123107463e-02    1.0207627344e+05
    3.2138090581e-02    1.0207557031e+05
    3.2153062522e-02    1.0207366406e+05
    3.2168023288e-02    1.0207291406e+05
    3.2182972878e-02    1.0207230469e+05
    3.2197911292e-02    1.0207178125e+05
    3.2212834805e-02    1.0207102344e+05
    3.2227750868e-02    1.0208033594e+05
    3.2242652029e-02    1.0208135156e+05
    3.2257542014e-02    1.0208202344e+05
    3.2272424549e-02    1.0208278906e+05
    3.2287292182e-02    1.0208365625e+05
    3.2302148640e-02    1.0208449219e+05
    3.2316997647e-02    1.0208639844e+05
    3.2331831753e-02    1.0208652344e+05
    3.2346658409e-02    1.0208653906e+05
    3.2361470163e-02    1.0208703906e+05
    3.2376270741e-02    1.0208753906e+05
    3.2391063869e-02    1.0208794531e+05
    3.2405842096e-02    1.0208825781e+05
    3.2420612872e-02    1.0207922656e+05
    3.2435368747e-02    1.0207988281e+05
    3.2450113446e-02    1.0208758594e+05
    3.2464850694e-02    1.0209021094e+05
    3.2479573041e-02    1.0209064844e+05
    3.2494287938e-02    1.0209110156e+05
    3.2508991659e-02    1.0209153906e+05
    3.2523684204e-02    1.0209194531e+05
    3.2538365573e-02    1.0209121094e+05
    3.2553035766e-02    1.0209158594e+05
    3.2567698509e-02    1.0209193750e+05
    3.2582346350e-02    1.0209222656e+05
    3.2596986741e-02    1.0209008594e+05
    3.2611619681e-02    1.0208346094e+05
    3.2626237720e-02    1.0208827344e+05
    3.2640848309e-02    1.0208318750e+05
    3.2655447721e-02    1.0208625781e+05
    3.2670035958e-02    1.0208861719e+05
    3.2684613019e-02    1.0209243750e+05
    3.2699178904e-02    1.0209399219e+05
    3.2713737339e-02    1.0209539844e+05
    3.2728284597e-02    1.0208518750e+05
    3.2742820680e-02    1.0208747656e+05
    3.2757349312e-02    1.0208974219e+05
    3.2771866769e-02    1.0208437500e+05
    3.2786373049e-02    1.0208421875e+05
    3.2800871879e-02    1.0208641406e+05
    3.2815355808e-02    1.0208415625e+05
    3.2829832286e-02    1.0208411719e+05
    3.2844301313e-02    1.0208589844e+05
    3.2858755440e-02    1.0208543750e+05
    3.2873202115e-02    1.0208496875e+05
    3.2887637615e-02    1.0208503906e+05
    3.2902065665e-02    1.0208503125e+05
    3.2916482538e-02    1.0208547656e+05
    3.2930891961e-02    1.0208510156e+05
    3.2945290208e-02    1.0208332031e+05
    3.2959677279e-02    1.0207799219e+05
    3.2974056900e-02    1.0207278125e+05
    3.2988425344e-02    1.0207158594e+05
    3.3002786338e-02    1.0206925000e+05
    3.3017136157e-02    1.0206817969e+05
    3.3031478524e-02    1.0207175781e+05
    3.3045809716e-02    1.0207110156e+05
    3.3060129732e-02    1.0207578906e+05
    3.3074442297e-02    1.0207528906e+05
    3.3088747412e-02    1.0207233594e+05
    3.3103041351e-02    1.0206860156e+05
    3.3117324114e-02    1.0206283594e+05
    3.3131599426e-02    1.0206221094e+05
    3.3145863563e-02    1.0206138281e+05
    3.3160120249e-02    1.0205996875e+05
    3.3174365759e-02    1.0205843750e+05
    3.3188603818e-02    1.0205678906e+05
    3.3202830702e-02    1.0205513281e+05
    3.3217050135e-02    1.0205350781e+05
    3.3231258392e-02    1.0204965625e+05
    3.3245459199e-02    1.0204871094e+05
    3.3259648830e-02    1.0204778906e+05
    3.3273831010e-02    1.0204630469e+05
    3.3288005739e-02    1.0204247656e+05
    3.3302169293e-02    1.0203863281e+05
    3.3316325396e-02    1.0203919531e+05
    3.3330474049e-02    1.0203971875e+05
    3.3344611526e-02    1.0203214844e+05
    3.3358741552e-02    1.0203264844e+05
    3.3372864127e-02    1.0203096094e+05
    3.3386975527e-02    1.0203410156e+05
    3.3401079476e-02    1.0203153125e+05
    3.3415172249e-02    1.0203027344e+05
    3.3429257572e-02    1.0202908594e+05
    3.3443335444e-02    1.0203028906e+05
    3.3457405865e-02    1.0202922656e+05
    3.3471468836e-02    1.0202816406e+05
    3.3485524356e-02    1.0202591406e+05
    3.3499568701e-02    1.0202472656e+05
    3.3513605595e-02    1.0202462500e+05
    3.3527631313e-02    1.0202328125e+05
    3.3541653305e-02    1.0202078906e+05
    3.3555664122e-02    1.0202063281e+05
    3.3569667488e-02    1.0202050000e+05
    3.3583663404e-02    1.0201874219e+05
    3.3597648144e-02    1.0201827344e+05
    3.3611625433e-02    1.0201730469e+05
    3.3625595272e-02    1.0201646094e+05
    3.3639557660e-02    1.0201635156e+05
    3.3653512597e-02    1.0201596094e+05
    3.3667460084e-02    1.0202085156e+05
    3.3681396395e-02    1.0202325781e+05
    3.3695328981e-02    1.0202577344e+05
    3.3709254116e-02    1.0202708594e+05
    3.3723168075e-02    1.0202271094e+05
    3.3737078309e-02    1.0201737500e+05
    3.3750977367e-02    1.0201658594e+05
    3.3764872700e-02    1.0201634375e+05
    3.3778760582e-02    1.0201721094e+05
    3.3792637289e-02    1.0201575000e+05
    3.3806510270e-02    1.0201540625e+05
    3.3820372075e-02    1.0201491406e+05
    3.3834230155e-02    1.0201430469e+05
    3.3848077059e-02    1.0201353125e+05
    3.3861916512e-02    1.0200808594e+05
    3.3875752240e-02    1.0200696094e+05
    3.3889576793e-02    1.0200110156e+05
    3.3903393894e-02    1.0199988281e+05
    3.3917203546e-02    1.0200378906e+05
    3.3931009471e-02    1.0200332031e+05
    3.3944804221e-02    1.0200647656e+05
    3.3958595246e-02    1.0200502344e+05
    3.3972378820e-02    1.0200414844e+05
    3.3986151218e-02    1.0199757031e+05
    3.3999919891e-02    1.0199528906e+05
    3.4013681114e-02    1.0199061719e+05
    3.4027434886e-02    1.0198934375e+05
    3.4041177481e-02    1.0198849219e+05
    3.4054916352e-02    1.0198638281e+05
    3.4068647772e-02    1.0198244531e+05
    3.4082375467e-02    1.0197716406e+05
    3.4096091986e-02    1.0197568750e+05
    3.4109804779e-02    1.0196828125e+05
    3.4123510122e-02    1.0196610156e+05
    3.4137208015e-02    1.0196837500e+05
    3.4150898457e-02    1.0196387500e+05
    3.4164581448e-02    1.0196156250e+05
    3.4178260714e-02    1.0195696094e+05
    3.4191932529e-02    1.0195458594e+05
    3.4205596894e-02    1.0195674219e+05
    3.4219253808e-02    1.0195111719e+05
    3.4232903272e-02    1.0195110156e+05
    3.4246545285e-02    1.0194515625e+05
    3.4260183573e-02    1.0194260156e+05
    3.4273810685e-02    1.0193875781e+05
    3.4287434071e-02    1.0193714844e+05
    3.4301050007e-02    1.0192864844e+05
    3.4314658493e-02    1.0192803125e+05
    3.4328263253e-02    1.0192458594e+05
    3.4341860563e-02    1.0192336719e+05
    3.4355450422e-02    1.0192041406e+05
    3.4369036555e-02    1.0191507031e+05
    3.4382611513e-02    1.0190969531e+05
    3.4396182746e-02    1.0190775781e+05
    3.4409742802e-02    1.0190949219e+05
    3.4423299134e-02    1.0190664844e+05
    3.4436848015e-02    1.0190510156e+05
    3.4450393170e-02    1.0190216406e+05
    3.4463927150e-02    1.0190509375e+05
    3.4477461129e-02    1.0190790625e+05
    3.4490987659e-02    1.0190621094e+05
    3.4504506737e-02    1.0190455469e+05
    3.4518022090e-02    1.0190291406e+05
    3.4531529993e-02    1.0189889844e+05
    3.4545030445e-02    1.0189240625e+05
    3.4558523446e-02    1.0188805469e+05
    3.4572008997e-02    1.0188660156e+05
    3.4585487098e-02    1.0188517969e+05
    3.4598957747e-02    1.0188727344e+05
    3.4612424672e-02    1.0188572656e+05
    3.4625884145e-02    1.0188968750e+05
    3.4639336169e-02    1.0188749219e+05
    3.4652780741e-02    1.0189000000e+05
    3.4666225314e-02    1.0189203125e+05
    3.4679658711e-02    1.0188850000e+05
    3.4693088382e-02    1.0188667969e+05
    3.4706510603e-02    1.0188715625e+05
    3.4719929099e-02    1.0188528906e+05
    3.4733340144e-02    1.0188453906e+05
    3.4746743739e-02    1.0188491406e+05
    3.4760143608e-02    1.0188418750e+05
    3.4773536026e-02    1.0188347656e+05
    3.4786924720e-02    1.0188271094e+05
    3.4800305963e-02    1.0188075781e+05
    3.4813679755e-02    1.0187986719e+05
    3.4827046096e-02    1.0187896094e+05
    3.4840408713e-02    1.0187792969e+05
    3.4853763878e-02    1.0187675781e+05
    3.4867111593e-02    1.0187608594e+05
    3.4880455583e-02    1.0187410156e+05
    3.4893795848e-02    1.0186571875e+05
    3.4907124937e-02    1.0186431250e+05
    3.4920454025e-02    1.0186857031e+05
    3.4933775663e-02    1.0186828906e+05
    3.4947093576e-02    1.0186574219e+05
    3.4960404038e-02    1.0186316406e+05
    3.4973710775e-02    1.0185944531e+05
    3.4987010062e-02    1.0185324219e+05
endcurve
