Curveplot
LS-DYNA keyword deck by LS-PrePost                          
Time
Pressure
Defined Connection
Pressure @ 65 #pts=1745
* Minval=     9.9807773438e+04 at time=         0.0163175967
* Maxval=     1.6837485938e+05 at time=         0.0070390999
    0.0000000000e+00    9.9996789062e+04
    3.3812357287e-05    9.9996789062e+04
    6.1326652940e-05    9.9999351562e+04
    8.9102875791e-05    9.9998351562e+04
    1.1682785407e-04    9.9997351562e+04
    1.4461828687e-04    9.9998804688e+04
    1.7236733402e-04    1.0000058594e+05
    2.0016246708e-04    1.0000810156e+05
    2.2795486439e-04    9.9999531250e+04
    2.5574557367e-04    9.9999539062e+04
    2.8353667585e-04    1.0000157031e+05
    3.1133697485e-04    9.9992210938e+04
    3.3912662184e-04    9.9998914062e+04
    3.6691734567e-04    9.9999132812e+04
    3.9470891352e-04    1.0000078906e+05
    4.2249175021e-04    1.0001059375e+05
    4.5027161832e-04    1.0000266406e+05
    4.7804549104e-04    9.9992851562e+04
    5.0581363030e-04    9.9998960938e+04
    5.3357944125e-04    9.9999304688e+04
    5.6134146871e-04    1.0000130469e+05
    5.8909942163e-04    1.0000146094e+05
    6.1685312539e-04    9.9996960938e+04
    6.4460188150e-04    1.0000143750e+05
    6.7234638846e-04    1.0000052344e+05
    7.0008635521e-04    1.0000000781e+05
    7.2782178177e-04    1.0000116406e+05
    7.5555208605e-04    1.0000014844e+05
    7.8327720985e-04    1.0000041406e+05
    8.1099680392e-04    1.0000062500e+05
    8.3871174138e-04    9.9997179688e+04
    8.6642213864e-04    9.9997101562e+04
    8.9412782108e-04    1.0000153906e+05
    9.2182843946e-04    1.0000122656e+05
    9.4952445943e-04    1.0000099219e+05
    9.7721535712e-04    1.0000159375e+05
    1.0049008997e-03    1.0000327344e+05
    1.0325826006e-03    1.0000213281e+05
    1.0602590628e-03    1.0000103125e+05
    1.0879321489e-03    1.0000066406e+05
    1.1155996472e-03    9.9996085938e+04
    1.1432634201e-03    9.9991976562e+04
    1.1709230021e-03    1.0000150000e+05
    1.1985785095e-03    1.0000100781e+05
    1.2262313394e-03    1.0000853906e+05
    1.2538790470e-03    1.0000337500e+05
    1.2815232622e-03    1.0000235156e+05
    1.3091630535e-03    9.9996960938e+04
    1.3368004002e-03    1.0000403125e+05
    1.3644339051e-03    1.0000846094e+05
    1.3920635683e-03    1.0002318750e+05
    1.4196902048e-03    1.0005314844e+05
    1.4473132323e-03    1.0010946094e+05
    1.4749332331e-03    1.0019197656e+05
    1.5025498578e-03    1.0032140625e+05
    1.5301633393e-03    1.0051285156e+05
    1.5577742597e-03    1.0077236719e+05
    1.5853822697e-03    1.0109921094e+05
    1.6129877185e-03    1.0147180469e+05
    1.6405890929e-03    1.0187089844e+05
    1.6681876732e-03    1.0225146875e+05
    1.6957829939e-03    1.0259262500e+05
    1.7233766848e-03    1.0286540625e+05
    1.7509678146e-03    1.0305415625e+05
    1.7785291420e-03    1.0314706250e+05
    1.8060547300e-03    1.0313484375e+05
    1.8335470231e-03    1.0305189844e+05
    1.8610082334e-03    1.0291189844e+05
    1.8884401070e-03    1.0274385156e+05
    1.9158447394e-03    1.0257921875e+05
    1.9432241097e-03    1.0242521094e+05
    1.9705800805e-03    1.0230000000e+05
    1.9979148638e-03    1.0221460156e+05
    2.0252298564e-03    1.0218802344e+05
    2.0525271539e-03    1.0221392969e+05
    2.0798076876e-03    1.0227393750e+05
    2.1070730872e-03    1.0234822656e+05
    2.1343247499e-03    1.0242192969e+05
    2.1615643054e-03    1.0247991406e+05
    2.1887931507e-03    1.0252543750e+05
    2.2160108201e-03    1.0254275781e+05
    2.2432196420e-03    1.0254287500e+05
    2.2704207804e-03    1.0251800781e+05
    2.2976147011e-03    1.0247960156e+05
    2.3248014040e-03    1.0243891406e+05
    2.3519827519e-03    1.0241072656e+05
    2.3791582789e-03    1.0239293750e+05
    2.4063293822e-03    1.0238971094e+05
    2.4334960617e-03    1.0238862500e+05
    2.4606597144e-03    1.0239258594e+05
    2.4878205732e-03    1.0240950781e+05
    2.5149781723e-03    1.0242440625e+05
    2.5421329774e-03    1.0244149219e+05
    2.5692859199e-03    1.0245718750e+05
    2.5964374654e-03    1.0245110156e+05
    2.6235871483e-03    1.0243927344e+05
    2.6507352013e-03    1.0242747656e+05
    2.6778825559e-03    1.0242555469e+05
    2.7050296776e-03    1.0242713281e+05
    2.7321761008e-03    1.0242405469e+05
    2.7593218256e-03    1.0242200000e+05
    2.7864677832e-03    1.0241610156e+05
    2.8136142064e-03    1.0242465625e+05
    2.8407603968e-03    1.0242713281e+05
    2.8679079842e-03    1.0244046875e+05
    2.8950548731e-03    1.0246160156e+05
    2.9222022276e-03    1.0248877344e+05
    2.9493502807e-03    1.0252625000e+05
    2.9764990322e-03    1.0257289844e+05
    3.0036487151e-03    1.0263731250e+05
    3.0307997949e-03    1.0271625781e+05
    3.0579508748e-03    1.0282257031e+05
    3.0851035845e-03    1.0291667969e+05
    3.1122572254e-03    1.0302452344e+05
    3.1394117977e-03    1.0312266406e+05
    3.1665677670e-03    1.0319653906e+05
    3.1937246677e-03    1.0325930469e+05
    3.2208829653e-03    1.0330253906e+05
    3.2480424270e-03    1.0331072656e+05
    3.2752046827e-03    1.0328866406e+05
    3.2952371985e-03    1.0325496094e+05
    3.3145032357e-03    1.0322543750e+05
    3.3336398192e-03    1.0318707031e+05
    3.3528339118e-03    1.0314836719e+05
    3.3720366191e-03    1.0310953906e+05
    3.3912549261e-03    1.0306294531e+05
    3.4104890656e-03    1.0301603906e+05
    3.4297339153e-03    1.0297142969e+05
    3.4486323129e-03    1.0292605469e+05
    3.4671388566e-03    1.0287781250e+05
    3.4854323603e-03    1.0283040625e+05
    3.5036695190e-03    1.0277103125e+05
    3.5219141282e-03    1.0270693750e+05
    3.5401545465e-03    1.0263641406e+05
    3.5583588760e-03    1.0256374219e+05
    3.5765271168e-03    1.0249239844e+05
    3.5946895368e-03    1.0242844531e+05
    3.6139658187e-03    1.0237210156e+05
    3.6330535077e-03    1.0232381250e+05
    3.6521453876e-03    1.0228225781e+05
    3.6699753255e-03    1.0225177344e+05
    3.6875614896e-03    1.0223261719e+05
    3.7050142419e-03    1.0221582031e+05
    3.7224807311e-03    1.0219321094e+05
    3.7400643341e-03    1.0217828906e+05
    3.7577797193e-03    1.0215835156e+05
    3.7755726371e-03    1.0215058594e+05
    3.7933769636e-03    1.0214357031e+05
    3.8111612666e-03    1.0213864844e+05
    3.8289318327e-03    1.0213522656e+05
    3.8467168342e-03    1.0213411719e+05
    3.8645383902e-03    1.0212572656e+05
    3.8824023213e-03    1.0211697656e+05
    3.9002960548e-03    1.0210222656e+05
    3.9182156324e-03    1.0208464844e+05
    3.9361710660e-03    1.0206633594e+05
    3.9541716687e-03    1.0204906250e+05
    3.9733103476e-03    1.0203808594e+05
    3.9924201556e-03    1.0202009375e+05
    4.0104058571e-03    1.0200283594e+05
    4.0284004062e-03    1.0198833594e+05
    4.0464363992e-03    1.0197341406e+05
    4.0656095371e-03    1.0196761719e+05
    4.0847789496e-03    1.0196196094e+05
    4.1039343923e-03    1.0196119531e+05
    4.1219722480e-03    1.0195708594e+05
    4.1400394402e-03    1.0195582031e+05
    4.1591953486e-03    1.0194586719e+05
    4.1784178466e-03    1.0193562500e+05
    4.1976389475e-03    1.0192441406e+05
    4.2168586515e-03    1.0191314844e+05
    4.2360713705e-03    1.0190203125e+05
    4.2552771047e-03    1.0189933594e+05
    4.2744791135e-03    1.0188865625e+05
    4.2936825193e-03    1.0187993750e+05
    4.3128933758e-03    1.0186583594e+05
    4.3321144767e-03    1.0185431250e+05
    4.3513495475e-03    1.0183091406e+05
    4.3705995195e-03    1.0181510156e+05
    4.3898657896e-03    1.0180119531e+05
    4.4091497548e-03    1.0178353906e+05
    4.4284537435e-03    1.0176062500e+05
    4.4477786869e-03    1.0172428125e+05
    4.4671236537e-03    1.0167814844e+05
    4.4864914380e-03    1.0162102344e+05
    4.5058806427e-03    1.0155686719e+05
    4.5252908021e-03    1.0148518750e+05
    4.5447219163e-03    1.0140141406e+05
    4.5641721226e-03    1.0131260156e+05
    4.5836409554e-03    1.0121785156e+05
    4.6031279489e-03    1.0111314844e+05
    4.6226321720e-03    1.0099613281e+05
    4.6421540901e-03    1.0086721875e+05
    4.6616927721e-03    1.0073957031e+05
    4.6812482178e-03    1.0061085156e+05
    4.7008208930e-03    1.0049682031e+05
    4.7204112634e-03    1.0039183594e+05
    4.7400193289e-03    1.0029742969e+05
    4.7596455552e-03    1.0023293750e+05
    4.7792894766e-03    1.0018363281e+05
    4.7989510931e-03    1.0015503906e+05
    4.8186304048e-03    1.0014507031e+05
    4.8383255489e-03    1.0015269531e+05
    4.8580355942e-03    1.0018168750e+05
    4.8777610064e-03    1.0023083594e+05
    4.8975008540e-03    1.0028571875e+05
    4.9172551371e-03    1.0034807031e+05
    4.9370229244e-03    1.0041522656e+05
    4.9568060786e-03    1.0047664844e+05
    4.9766036682e-03    1.0053243750e+05
    4.9964170903e-03    1.0058210156e+05
    5.0162458792e-03    1.0061377344e+05
    5.0360900350e-03    1.0064437500e+05
    5.0559476949e-03    1.0066532031e+05
    5.0758207217e-03    1.0067366406e+05
    5.0957072526e-03    1.0067742969e+05
    5.1156077534e-03    1.0067610156e+05
    5.1355226897e-03    1.0066671094e+05
    5.1554525271e-03    1.0065341406e+05
    5.1753963344e-03    1.0063258594e+05
    5.1953555085e-03    1.0061072656e+05
    5.2153295837e-03    1.0059897656e+05
    5.2353194915e-03    1.0058272656e+05
    5.2553247660e-03    1.0057724219e+05
    5.2753463387e-03    1.0057271094e+05
    5.2953832783e-03    1.0057827344e+05
    5.3154369816e-03    1.0058266406e+05
    5.3355065174e-03    1.0058309375e+05
    5.3555918857e-03    1.0059058594e+05
    5.3756926209e-03    1.0059807031e+05
    5.3958082572e-03    1.0060646094e+05
    5.4159392603e-03    1.0062228906e+05
    5.4360851645e-03    1.0063841406e+05
    5.4562464356e-03    1.0064750781e+05
    5.4764230736e-03    1.0065822656e+05
    5.4966160096e-03    1.0066590625e+05
    5.5168238468e-03    1.0066802344e+05
    5.5370470509e-03    1.0067328125e+05
    5.5572865531e-03    1.0067557031e+05
    5.5775423534e-03    1.0067715625e+05
    5.5978130549e-03    1.0066962500e+05
    5.6181000546e-03    1.0067075000e+05
    5.6384028867e-03    1.0066771094e+05
    5.6587206200e-03    1.0067091406e+05
    5.6790532544e-03    1.0067383594e+05
    5.6994007900e-03    1.0067647656e+05
    5.7197632268e-03    1.0067981250e+05
    5.7401410304e-03    1.0069162500e+05
    5.7605337352e-03    1.0068911719e+05
    5.7809422724e-03    1.0069318750e+05
    5.8013652451e-03    1.0069639844e+05
    5.8218040504e-03    1.0069937500e+05
    5.8422577567e-03    1.0070369531e+05
    5.8627268299e-03    1.0070768750e+05
    5.8832112700e-03    1.0072046094e+05
    5.9037101455e-03    1.0072617969e+05
    5.9242248535e-03    1.0072713281e+05
    5.9447535314e-03    1.0072938281e+05
    5.9641525149e-03    1.0073532031e+05
    5.9830932878e-03    1.0074041406e+05
    6.0020405799e-03    1.0074471094e+05
    6.0210367665e-03    1.0075003125e+05
    6.0400799848e-03    1.0076239844e+05
    6.0591096990e-03    1.0076397656e+05
    6.0781282373e-03    1.0076889844e+05
    6.0972142965e-03    1.0077377344e+05
    6.1162756756e-03    1.0078331250e+05
    6.1353649944e-03    1.0078853906e+05
    6.1544459313e-03    1.0080325000e+05
    6.1734300107e-03    1.0080927344e+05
    6.1924448237e-03    1.0082437500e+05
    6.2115197070e-03    1.0083046094e+05
    6.2306127511e-03    1.0083585156e+05
    6.2497169711e-03    1.0084115625e+05
    6.2688281760e-03    1.0084721094e+05
    6.2879407778e-03    1.0085637500e+05
    6.3070552424e-03    1.0087165625e+05
    6.3261794858e-03    1.0088739844e+05
    6.3453060575e-03    1.0090603906e+05
    6.3644465990e-03    1.0092610156e+05
    6.3835908659e-03    1.0094825781e+05
    6.4027444459e-03    1.0097060156e+05
    6.4219115302e-03    1.0098887500e+05
    6.4410855994e-03    1.0100560156e+05
    6.4602680504e-03    1.0101778906e+05
    6.4794607460e-03    1.0103096875e+05
    6.4986641519e-03    1.0104440625e+05
    6.5178787336e-03    1.0105233594e+05
    6.5371058881e-03    1.0105911719e+05
    6.5563363023e-03    1.0107033594e+05
    6.5755699761e-03    1.0107158594e+05
    6.5948092379e-03    1.0107191406e+05
    6.6140629351e-03    1.0107178906e+05
    6.6333152354e-03    1.0106955469e+05
    6.6525745206e-03    1.0106696094e+05
    6.6718445159e-03    1.0106888281e+05
    6.6911154427e-03    1.0107052344e+05
    6.7104012705e-03    1.0108031250e+05
    6.7296870984e-03    1.0109658594e+05
    6.7489854991e-03    1.0113047656e+05
    6.7682852969e-03    1.0119369531e+05
    6.7875892855e-03    1.0133206250e+05
    6.8069072440e-03    1.0162314844e+05
    6.8262196146e-03    1.0220871094e+05
    6.8455408327e-03    1.0336489844e+05
    6.8648783490e-03    1.0554611719e+05
    6.8842126057e-03    1.0936177344e+05
    6.9035501219e-03    1.1538361719e+05
    6.9228983484e-03    1.2387335156e+05
    6.9422605447e-03    1.3434739062e+05
    6.9616222754e-03    1.4548401562e+05
    6.9809844717e-03    1.5547404688e+05
    7.0003494620e-03    1.6285050000e+05
    7.0197195746e-03    1.6703367188e+05
    7.0390999317e-03    1.6837485938e+05
    7.0584909990e-03    1.6775912500e+05
    7.0778946392e-03    1.6612576562e+05
    7.0973108523e-03    1.6428353125e+05
    7.1167377755e-03    1.6267682812e+05
    7.1361698210e-03    1.6138150000e+05
    7.1556069888e-03    1.6025279688e+05
    7.1750483476e-03    1.5910740625e+05
    7.1944966912e-03    1.5778818750e+05
    7.2139529511e-03    1.5624375000e+05
    7.2334166616e-03    1.5449253125e+05
    7.2528840974e-03    1.5261381250e+05
    7.2723543271e-03    1.5071048438e+05
    7.2918278165e-03    1.4888020312e+05
    7.3113050312e-03    1.4715664062e+05
    7.3307845742e-03    1.4555512500e+05
    7.3502692394e-03    1.4405540625e+05
    7.3697618209e-03    1.4263953125e+05
    7.3892641813e-03    1.4126387500e+05
    7.4087800458e-03    1.3992310938e+05
    7.4282912537e-03    1.3861360938e+05
    7.4477996677e-03    1.3734506250e+05
    7.4673094787e-03    1.3614718750e+05
    7.4868267402e-03    1.3502292188e+05
    7.5063589029e-03    1.3398531250e+05
    7.5258887373e-03    1.3302531250e+05
    7.5454111211e-03    1.3214306250e+05
    7.5649353676e-03    1.3133815625e+05
    7.5844703242e-03    1.3058172656e+05
    7.6040057465e-03    1.2986796875e+05
    7.6235276647e-03    1.2919785156e+05
    7.6430505142e-03    1.2856075781e+05
    7.6625877991e-03    1.2795735156e+05
    7.6821087860e-03    1.2738032031e+05
    7.7016241848e-03    1.2682602344e+05
    7.7211544849e-03    1.2630272656e+05
    7.7406810597e-03    1.2579625781e+05
    7.7602043748e-03    1.2530653906e+05
    7.7797495760e-03    1.2482535156e+05
    7.7992938459e-03    1.2435050000e+05
    7.8188432381e-03    1.2388736719e+05
    7.8384252265e-03    1.2342303906e+05
    7.8580006957e-03    1.2297475000e+05
    7.8775910661e-03    1.2253411719e+05
    7.8972103074e-03    1.2210822656e+05
    7.9168286175e-03    1.2170397656e+05
    7.9364804551e-03    1.2131083594e+05
    7.9561360180e-03    1.2094128125e+05
    7.9758102074e-03    1.2058725781e+05
    7.9955114052e-03    1.2024783594e+05
    8.0152126029e-03    1.1991821875e+05
    8.0349491909e-03    1.1959712500e+05
    8.0546662211e-03    1.1928956250e+05
    8.0743944272e-03    1.1898183594e+05
    8.0941170454e-03    1.1869225000e+05
    8.1138620153e-03    1.1840472656e+05
    8.1336386502e-03    1.1812872656e+05
    8.1534720957e-03    1.1786478906e+05
    8.1733558327e-03    1.1760938281e+05
    8.1932730973e-03    1.1736847656e+05
    8.2132071257e-03    1.1713997656e+05
    8.2330890000e-03    1.1692517969e+05
    8.2529615611e-03    1.1673244531e+05
    8.2727763802e-03    1.1654763281e+05
    8.2926023751e-03    1.1638033594e+05
    8.3124246448e-03    1.1622710156e+05
    8.3322748542e-03    1.1608335156e+05
    8.3521194756e-03    1.1594508594e+05
    8.3719678223e-03    1.1582097656e+05
    8.3917891607e-03    1.1571328125e+05
    8.4116021171e-03    1.1560850000e+05
    8.4314141423e-03    1.1550557031e+05
    8.4512168542e-03    1.1540460156e+05
    8.4710381925e-03    1.1529884375e+05
    8.4908353165e-03    1.1519753906e+05
    8.5106678307e-03    1.1509996875e+05
    8.5304882377e-03    1.1500000000e+05
    8.5503393784e-03    1.1489308594e+05
    8.5699046031e-03    1.1478835156e+05
    8.5892248899e-03    1.1468252344e+05
    8.6083402857e-03    1.1457919531e+05
    8.6272666231e-03    1.1447191406e+05
    8.6460309103e-03    1.1436757031e+05
    8.6646731943e-03    1.1426689844e+05
    8.6832325906e-03    1.1416452344e+05
    8.7017398328e-03    1.1406403906e+05
    8.7202098221e-03    1.1396378906e+05
    8.7386453524e-03    1.1385396875e+05
    8.7570473552e-03    1.1373522656e+05
    8.7753897533e-03    1.1361047656e+05
    8.7936492637e-03    1.1347731250e+05
    8.8118780404e-03    1.1334788281e+05
    8.8300397620e-03    1.1321333594e+05
    8.8481390849e-03    1.1307985156e+05
    8.8662039489e-03    1.1294874219e+05
    8.8842641562e-03    1.1281975781e+05
    8.9023411274e-03    1.1270021094e+05
    8.9204348624e-03    1.1259633594e+05
    8.9385388419e-03    1.1249190625e+05
    8.9566456154e-03    1.1240371875e+05
    8.9747514576e-03    1.1232328906e+05
    8.9928600937e-03    1.1226033594e+05
    9.0109808370e-03    1.1220214844e+05
    9.0291155502e-03    1.1215956250e+05
    9.0472688898e-03    1.1211991406e+05
    9.0654399246e-03    1.1207028906e+05
    9.0836230665e-03    1.1202402344e+05
    9.1018192470e-03    1.1196939844e+05
    9.1200266033e-03    1.1190755469e+05
    9.1382460669e-03    1.1184242969e+05
    9.1564757749e-03    1.1177817969e+05
    9.1747231781e-03    1.1170215625e+05
    9.1929892078e-03    1.1162087500e+05
    9.2112747952e-03    1.1153231250e+05
    9.2295790091e-03    1.1143160156e+05
    9.2479009181e-03    1.1133671875e+05
    9.2662386596e-03    1.1123552344e+05
    9.2845931649e-03    1.1113641406e+05
    9.3029672280e-03    1.1103909375e+05
    9.3213599175e-03    1.1094867969e+05
    9.3397712335e-03    1.1085950000e+05
    9.3582011759e-03    1.1078488281e+05
    9.3766497448e-03    1.1071096094e+05
    9.3951150775e-03    1.1064588281e+05
    9.4135999680e-03    1.1058582031e+05
    9.4321016222e-03    1.1052906250e+05
    9.4506228343e-03    1.1048168750e+05
    9.4691645354e-03    1.1043822656e+05
    9.4877239317e-03    1.1040225000e+05
    9.5063010231e-03    1.1036900781e+05
    9.5248948783e-03    1.1033553125e+05
    9.5435054973e-03    1.1029693750e+05
    9.5621328801e-03    1.1025497656e+05
    9.5807760954e-03    1.1021806250e+05
    9.5994332805e-03    1.1016938281e+05
    9.6181081608e-03    1.1011589844e+05
    9.6367979422e-03    1.1005839844e+05
    9.6555035561e-03    1.1000034375e+05
    9.6742231399e-03    1.0993819531e+05
    9.6929576248e-03    1.0987803906e+05
    9.7117051482e-03    1.0981774219e+05
    9.7304685041e-03    1.0975509375e+05
    9.7492448986e-03    1.0969321094e+05
    9.7680361941e-03    1.0963606250e+05
    9.7868405282e-03    1.0958425000e+05
    9.8056588322e-03    1.0953678906e+05
    9.8244920373e-03    1.0949393750e+05
    9.8433364183e-03    1.0945136719e+05
    9.8621929064e-03    1.0941663281e+05
    9.8810633644e-03    1.0938147656e+05
    9.8999459296e-03    1.0934972656e+05
    9.9188406020e-03    1.0931747656e+05
    9.9377483130e-03    1.0928611719e+05
    9.9566690624e-03    1.0924971094e+05
    9.9756028503e-03    1.0921087500e+05
    9.9945487455e-03    1.0916587500e+05
    1.0013507679e-02    1.0911128906e+05
    1.0032479651e-02    1.0905978906e+05
    1.0051463731e-02    1.0900085156e+05
    1.0070459917e-02    1.0893535156e+05
    1.0089469142e-02    1.0887253906e+05
    1.0108492337e-02    1.0880665625e+05
    1.0127528571e-02    1.0874025000e+05
    1.0146577843e-02    1.0866850781e+05
    1.0165639222e-02    1.0859818750e+05
    1.0184712708e-02    1.0852772656e+05
    1.0203798302e-02    1.0846216406e+05
    1.0222896002e-02    1.0839347656e+05
    1.0242006741e-02    1.0832158594e+05
    1.0261129588e-02    1.0824958594e+05
    1.0280264542e-02    1.0818688281e+05
    1.0299413465e-02    1.0811747656e+05
    1.0318575427e-02    1.0805515625e+05
    1.0337748565e-02    1.0799325000e+05
    1.0356934741e-02    1.0793221094e+05
    1.0376133956e-02    1.0787267969e+05
    1.0395346209e-02    1.0781218750e+05
    1.0414571501e-02    1.0775214844e+05
    1.0433809832e-02    1.0768311719e+05
    1.0453061201e-02    1.0762177344e+05
    1.0472324677e-02    1.0755009375e+05
    1.0491601191e-02    1.0748718750e+05
    1.0510892607e-02    1.0741378906e+05
    1.0530196130e-02    1.0734396094e+05
    1.0549513623e-02    1.0727125781e+05
    1.0568842292e-02    1.0719816406e+05
    1.0588183999e-02    1.0713208594e+05
    1.0607538745e-02    1.0706485156e+05
    1.0626907460e-02    1.0699693750e+05
    1.0646289214e-02    1.0692797656e+05
    1.0665684007e-02    1.0685839844e+05
    1.0685092770e-02    1.0679341406e+05
    1.0704516433e-02    1.0672657031e+05
    1.0723951273e-02    1.0666488281e+05
    1.0743400082e-02    1.0660002344e+05
    1.0762862861e-02    1.0654433594e+05
    1.0782338679e-02    1.0648422656e+05
    1.0801829398e-02    1.0642510156e+05
    1.0821334086e-02    1.0636705469e+05
    1.0840852745e-02    1.0632160156e+05
    1.0860386305e-02    1.0626800000e+05
    1.0879932903e-02    1.0622447656e+05
    1.0899493471e-02    1.0617883594e+05
    1.0919069871e-02    1.0612855469e+05
    1.0938662104e-02    1.0607646875e+05
    1.0958270170e-02    1.0601635156e+05
    1.0977892205e-02    1.0596166406e+05
    1.0997531936e-02    1.0589728125e+05
    1.1017187499e-02    1.0583728125e+05
    1.1036860757e-02    1.0577186719e+05
    1.1056551710e-02    1.0570583594e+05
    1.1076259427e-02    1.0562939844e+05
    1.1095987633e-02    1.0554793750e+05
    1.1115733534e-02    1.0546346094e+05
    1.1135498993e-02    1.0537222656e+05
    1.1155283079e-02    1.0527716406e+05
    1.1175086722e-02    1.0517836719e+05
    1.1194912717e-02    1.0508792969e+05
    1.1214758269e-02    1.0499008594e+05
    1.1234625243e-02    1.0490241406e+05
    1.1254511774e-02    1.0482135156e+05
    1.1274418794e-02    1.0474515625e+05
    1.1294347234e-02    1.0467716406e+05
    1.1314296164e-02    1.0462603906e+05
    1.1334266514e-02    1.0458925781e+05
    1.1354257353e-02    1.0456693750e+05
    1.1374268681e-02    1.0455500000e+05
    1.1394302361e-02    1.0455150000e+05
    1.1414355598e-02    1.0455666406e+05
    1.1434430256e-02    1.0455603906e+05
    1.1454525404e-02    1.0455858594e+05
    1.1474640109e-02    1.0454785156e+05
    1.1494777165e-02    1.0452835156e+05
    1.1514934711e-02    1.0450188281e+05
    1.1535113677e-02    1.0445431250e+05
    1.1555313133e-02    1.0439696094e+05
    1.1575534008e-02    1.0433499219e+05
    1.1595774442e-02    1.0426206250e+05
    1.1616035365e-02    1.0419046094e+05
    1.1636316776e-02    1.0411461719e+05
    1.1656619608e-02    1.0403758594e+05
    1.1676942930e-02    1.0395305469e+05
    1.1697287671e-02    1.0386502344e+05
    1.1717652902e-02    1.0377900781e+05
    1.1738038622e-02    1.0368618750e+05
    1.1758443899e-02    1.0359039844e+05
    1.1778870597e-02    1.0349163281e+05
    1.1799318716e-02    1.0339107031e+05
    1.1819788255e-02    1.0328860156e+05
    1.1840280145e-02    1.0317732031e+05
    1.1860790662e-02    1.0306921875e+05
    1.1881321669e-02    1.0296096094e+05
    1.1901874095e-02    1.0285578906e+05
    1.1922447011e-02    1.0276678125e+05
    1.1943042278e-02    1.0269077344e+05
    1.1963658035e-02    1.0261997656e+05
    1.1984295212e-02    1.0256377344e+05
    1.2004952878e-02    1.0251058594e+05
    1.2025631964e-02    1.0247321094e+05
    1.2046331540e-02    1.0243328906e+05
    1.2067052536e-02    1.0240591406e+05
    1.2087795883e-02    1.0238075781e+05
    1.2108558789e-02    1.0236803906e+05
    1.2129344046e-02    1.0237781250e+05
    1.2150149792e-02    1.0239306250e+05
    1.2170976959e-02    1.0241724219e+05
    1.2191825546e-02    1.0244578906e+05
    1.2212695554e-02    1.0246850000e+05
    1.2233586982e-02    1.0249565625e+05
    1.2254500762e-02    1.0252016406e+05
    1.2275436893e-02    1.0254163281e+05
    1.2296394445e-02    1.0255547656e+05
    1.2317374349e-02    1.0257393750e+05
    1.2338375673e-02    1.0259865625e+05
    1.2359398417e-02    1.0262971094e+05
    1.2380442582e-02    1.0266222656e+05
    1.2401508167e-02    1.0271435156e+05
    1.2422595173e-02    1.0278453906e+05
    1.2443703599e-02    1.0289789844e+05
    1.2464834377e-02    1.0305511719e+05
    1.2485986575e-02    1.0328280469e+05
    1.2507158332e-02    1.0359634375e+05
    1.2528351508e-02    1.0401182031e+05
    1.2549565174e-02    1.0454309375e+05
    1.2570801191e-02    1.0521727344e+05
    1.2592058629e-02    1.0603487500e+05
    1.2613337487e-02    1.0699338281e+05
    1.2634636834e-02    1.0806222656e+05
    1.2655957602e-02    1.0919235156e+05
    1.2677297927e-02    1.1031547656e+05
    1.2698660605e-02    1.1135352344e+05
    1.2720043771e-02    1.1222478906e+05
    1.2741449289e-02    1.1286509375e+05
    1.2762876227e-02    1.1323928906e+05
    1.2784325518e-02    1.1333689844e+05
    1.2805794366e-02    1.1317539844e+05
    1.2827285565e-02    1.1279189844e+05
    1.2848797254e-02    1.1223250781e+05
    1.2870330364e-02    1.1154760156e+05
    1.2891885825e-02    1.1080180469e+05
    1.2913462706e-02    1.1004797656e+05
    1.2935061008e-02    1.0932533594e+05
    1.2956679799e-02    1.0868892969e+05
    1.2978320010e-02    1.0815121094e+05
    1.2999981642e-02    1.0771883594e+05
    1.3021663763e-02    1.0736206250e+05
    1.3043368235e-02    1.0704438281e+05
    1.3065092266e-02    1.0673458594e+05
    1.3086837716e-02    1.0637947656e+05
    1.3108605519e-02    1.0596933594e+05
    1.3130392879e-02    1.0549106250e+05
    1.3152201660e-02    1.0495252344e+05
    1.3174032792e-02    1.0436650781e+05
    1.3195885345e-02    1.0375667969e+05
    1.3217759319e-02    1.0314952344e+05
    1.3239653781e-02    1.0256711719e+05
    1.3261569664e-02    1.0203791406e+05
    1.3283506967e-02    1.0157746094e+05
    1.3305463828e-02    1.0118896094e+05
    1.3327440247e-02    1.0087521094e+05
    1.3349435292e-02    1.0062830469e+05
    1.3371448033e-02    1.0044017969e+05
    1.3393475674e-02    1.0030514844e+05
    1.3415516354e-02    1.0021442969e+05
    1.3437564485e-02    1.0015077344e+05
    1.3459613547e-02    1.0011346094e+05
    1.3481658883e-02    1.0010285156e+05
    1.3503690250e-02    1.0010278125e+05
    1.3525702059e-02    1.0012122656e+05
    1.3547683135e-02    1.0015937500e+05
    1.3569628820e-02    1.0020803906e+05
    1.3591531664e-02    1.0027300781e+05
    1.3613392599e-02    1.0034660156e+05
    1.3635210693e-02    1.0041989844e+05
    1.3656994328e-02    1.0048905469e+05
    1.3678749092e-02    1.0055433594e+05
    1.3700488023e-02    1.0060897656e+05
    1.3722228818e-02    1.0065697656e+05
    1.3743981719e-02    1.0069071875e+05
    1.3765762560e-02    1.0071207031e+05
    1.3787578791e-02    1.0072944531e+05
    1.3809437864e-02    1.0074116406e+05
    1.3831341639e-02    1.0075693750e+05
    1.3853288256e-02    1.0078735156e+05
    1.3875273056e-02    1.0083730469e+05
    1.3897285797e-02    1.0090241406e+05
    1.3919321820e-02    1.0098360156e+05
    1.3941374607e-02    1.0108134375e+05
    1.3963440433e-02    1.0118791406e+05
    1.3985517435e-02    1.0128753906e+05
    1.4007603750e-02    1.0137364844e+05
    1.4029704034e-02    1.0143766406e+05
    1.4051820152e-02    1.0147925781e+05
    1.4073957689e-02    1.0149578906e+05
    1.4096121304e-02    1.0148931250e+05
    1.4118315652e-02    1.0146568750e+05
    1.4140545391e-02    1.0143991406e+05
    1.4162814245e-02    1.0140797656e+05
    1.4185124077e-02    1.0138653906e+05
    1.4207473956e-02    1.0136868750e+05
    1.4229862019e-02    1.0136514844e+05
    1.4252286404e-02    1.0137656250e+05
    1.4274741523e-02    1.0138621094e+05
    1.4297228307e-02    1.0140759375e+05
    1.4319745824e-02    1.0142910156e+05
    1.4342290349e-02    1.0144796094e+05
    1.4364863746e-02    1.0145988281e+05
    1.4387467876e-02    1.0146032031e+05
    1.4410103671e-02    1.0146674219e+05
    1.4432771131e-02    1.0147194531e+05
    1.4455472119e-02    1.0147787500e+05
    1.4478209428e-02    1.0148297656e+05
    1.4500979334e-02    1.0148783594e+05
    1.4523783699e-02    1.0149547656e+05
    1.4546621591e-02    1.0149662500e+05
    1.4569494873e-02    1.0149905469e+05
    1.4592399821e-02    1.0150516406e+05
    1.4615339227e-02    1.0150410156e+05
    1.4638305642e-02    1.0150121875e+05
    1.4661304653e-02    1.0149721875e+05
    1.4684336260e-02    1.0147807031e+05
    1.4707398601e-02    1.0145862500e+05
    1.4730494469e-02    1.0142768750e+05
    1.4753622934e-02    1.0140340625e+05
    1.4776783995e-02    1.0137196094e+05
    1.4799979515e-02    1.0133871094e+05
    1.4823205769e-02    1.0130941406e+05
    1.4846466482e-02    1.0127633594e+05
    1.4869757928e-02    1.0123980469e+05
    1.4893081971e-02    1.0119966406e+05
    1.4916437678e-02    1.0115466406e+05
    1.4939822257e-02    1.0111002344e+05
    1.4963239431e-02    1.0105805469e+05
    1.4986685477e-02    1.0100116406e+05
    1.5010161325e-02    1.0094178906e+05
    1.5033668838e-02    1.0087252344e+05
    1.5057205223e-02    1.0079700781e+05
    1.5080772340e-02    1.0072944531e+05
    1.5104367398e-02    1.0065839844e+05
    1.5127992257e-02    1.0058775000e+05
    1.5151646920e-02    1.0050963281e+05
    1.5175330453e-02    1.0042760156e+05
    1.5199041925e-02    1.0035578906e+05
    1.5222782269e-02    1.0029135156e+05
    1.5246548690e-02    1.0022841406e+05
    1.5270343982e-02    1.0017661719e+05
    1.5294168144e-02    1.0012862500e+05
    1.5318016522e-02    1.0008441406e+05
    1.5341891907e-02    1.0004396094e+05
    1.5365792438e-02    1.0001839844e+05
    1.5389721841e-02    9.9999804688e+04
    1.5413676389e-02    9.9999945312e+04
    1.5437657945e-02    1.0000142969e+05
    1.5461664647e-02    1.0000977344e+05
    1.5485695563e-02    1.0002571094e+05
    1.5509752557e-02    1.0004886719e+05
    1.5533835627e-02    1.0007299219e+05
    1.5557944775e-02    1.0010808594e+05
    1.5582079068e-02    1.0013475000e+05
    1.5606240369e-02    1.0016150781e+05
    1.5630424023e-02    1.0017415625e+05
    1.5654634684e-02    1.0019127344e+05
    1.5678871423e-02    1.0019418750e+05
    1.5703132376e-02    1.0019968750e+05
    1.5727419406e-02    1.0019750781e+05
    1.5751728788e-02    1.0018382031e+05
    1.5776060522e-02    1.0017517969e+05
    1.5800418332e-02    1.0016019531e+05
    1.5824800357e-02    1.0014347656e+05
    1.5849204734e-02    1.0012147656e+05
    1.5873633325e-02    1.0010552344e+05
    1.5898084268e-02    1.0008900781e+05
    1.5922557563e-02    1.0006653125e+05
    1.5947058797e-02    1.0005485156e+05
    1.5971582383e-02    1.0004216406e+05
    1.5996130183e-02    1.0003041406e+05
    1.6020702198e-02    1.0001660156e+05
    1.6045298427e-02    9.9997156250e+04
    1.6069920734e-02    9.9980445312e+04
    1.6094569117e-02    9.9963710938e+04
    1.6119243577e-02    9.9948507812e+04
    1.6143942252e-02    9.9923773438e+04
    1.6168667004e-02    9.9904382812e+04
    1.6193419695e-02    9.9882218750e+04
    1.6218200326e-02    9.9859593750e+04
    1.6243007034e-02    9.9845414062e+04
    1.6267839819e-02    9.9827718750e+04
    1.6292702407e-02    9.9819164062e+04
    1.6317596659e-02    9.9807773438e+04
    1.6342513263e-02    9.9808375000e+04
    1.6367461532e-02    9.9816281250e+04
    1.6392435879e-02    9.9827664062e+04
    1.6417443752e-02    9.9839335938e+04
    1.6442479566e-02    9.9857898438e+04
    1.6467543319e-02    9.9877718750e+04
    1.6492636874e-02    9.9898023438e+04
    1.6517756507e-02    9.9926375000e+04
    1.6542907804e-02    9.9956914062e+04
    1.6568088904e-02    9.9991835938e+04
    1.6593271866e-02    1.0002947656e+05
    1.6618426889e-02    1.0007535156e+05
    1.6643559560e-02    1.0012289844e+05
    1.6668669879e-02    1.0017125781e+05
    1.6693757847e-02    1.0022222656e+05
    1.6718825325e-02    1.0026715625e+05
    1.6743874177e-02    1.0032308594e+05
    1.6768900678e-02    1.0038403125e+05
    1.6793908551e-02    1.0044135156e+05
    1.6818899661e-02    1.0049647656e+05
    1.6843874007e-02    1.0055216406e+05
    1.6868829727e-02    1.0060864844e+05
    1.6893770546e-02    1.0066056250e+05
    1.6918692738e-02    1.0071467969e+05
    1.6943598166e-02    1.0076303125e+05
    1.6968490556e-02    1.0081067969e+05
    1.6993366182e-02    1.0085389844e+05
    1.7018226907e-02    1.0089791406e+05
    1.7043072730e-02    1.0093190625e+05
    1.7067901790e-02    1.0096433594e+05
    1.7092714086e-02    1.0099346094e+05
    1.7117511481e-02    1.0102177344e+05
    1.7142292112e-02    1.0104425000e+05
    1.7167057842e-02    1.0106952344e+05
    1.7191808671e-02    1.0109882031e+05
    1.7216544598e-02    1.0112765625e+05
    1.7241263762e-02    1.0115646094e+05
    1.7265968025e-02    1.0118953906e+05
    1.7290659249e-02    1.0122489844e+05
    1.7315333709e-02    1.0126871094e+05
    1.7339993268e-02    1.0130305469e+05
    1.7364639789e-02    1.0134135156e+05
    1.7389267683e-02    1.0138505469e+05
    1.7413880676e-02    1.0142728125e+05
    1.7438478768e-02    1.0146946875e+05
    1.7463061959e-02    1.0151665625e+05
    1.7487626523e-02    1.0155406250e+05
    1.7512176186e-02    1.0159116406e+05
    1.7536709085e-02    1.0161178125e+05
    1.7561223358e-02    1.0163478906e+05
    1.7585720867e-02    1.0165083594e+05
    1.7610201612e-02    1.0166452344e+05
    1.7634663731e-02    1.0167124219e+05
    1.7659107223e-02    1.0167525781e+05
    1.7683532089e-02    1.0167793750e+05
    1.7707940191e-02    1.0168482031e+05
    1.7732329667e-02    1.0169189844e+05
    1.7756698653e-02    1.0170347656e+05
    1.7781050876e-02    1.0171058594e+05
    1.7805384472e-02    1.0171615625e+05
    1.7829699442e-02    1.0172058594e+05
    1.7853999510e-02    1.0172946875e+05
    1.7878280953e-02    1.0174136719e+05
    1.7902545631e-02    1.0175527344e+05
    1.7926793545e-02    1.0176722656e+05
    1.7951028422e-02    1.0178396875e+05
    1.7975246534e-02    1.0179952344e+05
    1.7999447882e-02    1.0181112500e+05
    1.8023636192e-02    1.0182780469e+05
    1.8047811463e-02    1.0184925781e+05
    1.8071975559e-02    1.0187393750e+05
    1.8096126616e-02    1.0190222656e+05
    1.8120266497e-02    1.0192981250e+05
    1.8144397065e-02    1.0195982031e+05
    1.8168520182e-02    1.0199814844e+05
    1.8192630261e-02    1.0203849219e+05
    1.8216732889e-02    1.0209019531e+05
    1.8240824342e-02    1.0214568750e+05
    1.8264908344e-02    1.0220660156e+05
    1.8288983032e-02    1.0228209375e+05
    1.8313048407e-02    1.0236128125e+05
    1.8337102607e-02    1.0245231250e+05
    1.8361147493e-02    1.0255697656e+05
    1.8385183066e-02    1.0267808594e+05
    1.8409207463e-02    1.0280267969e+05
    1.8433224410e-02    1.0294564844e+05
    1.8457230181e-02    1.0308902344e+05
    1.8481226638e-02    1.0322882031e+05
    1.8505210057e-02    1.0337405469e+05
    1.8529184163e-02    1.0350922656e+05
    1.8553148955e-02    1.0362575781e+05
    1.8577100709e-02    1.0371837500e+05
    1.8601041287e-02    1.0378639844e+05
    1.8624972552e-02    1.0382469531e+05
    1.8648892641e-02    1.0382671094e+05
    1.8672801554e-02    1.0378822656e+05
    1.8696699291e-02    1.0371091406e+05
    1.8720587716e-02    1.0359122656e+05
    1.8744463101e-02    1.0344484375e+05
    1.8768329173e-02    1.0325393750e+05
    1.8792184070e-02    1.0302966406e+05
    1.8816027790e-02    1.0277147656e+05
    1.8839860335e-02    1.0249403125e+05
    1.8863683566e-02    1.0220936719e+05
    1.8887493759e-02    1.0192850781e+05
    1.8911294639e-02    1.0166575000e+05
    1.8935086206e-02    1.0143003125e+05
    1.8958866596e-02    1.0122388281e+05
    1.8982635811e-02    1.0105027344e+05
    1.9006397575e-02    1.0091097656e+05
    1.9030146301e-02    1.0080777344e+05
    1.9053885713e-02    1.0073700000e+05
    1.9077615812e-02    1.0069250781e+05
    1.9101334736e-02    1.0066425781e+05
    1.9125042483e-02    1.0065515625e+05
    1.9148740917e-02    1.0066096094e+05
    1.9172428176e-02    1.0068163281e+05
    1.9196104258e-02    1.0071805469e+05
    1.9219771028e-02    1.0075450000e+05
    1.9243424758e-02    1.0079606250e+05
    1.9267069176e-02    1.0084678906e+05
    1.9290700555e-02    1.0089687500e+05
    1.9314322621e-02    1.0095407031e+05
    1.9337931648e-02    1.0101178906e+05
    1.9361529499e-02    1.0107185156e+05
    1.9385114312e-02    1.0112836719e+05
    1.9408687949e-02    1.0118297656e+05
    1.9432250410e-02    1.0123322656e+05
    1.9455801696e-02    1.0127885156e+05
    1.9479339942e-02    1.0131888281e+05
    1.9502865151e-02    1.0136138281e+05
    1.9526379183e-02    1.0139453906e+05
    1.9549878314e-02    1.0143178906e+05
    1.9573366269e-02    1.0146997656e+05
    1.9596841186e-02    1.0150842969e+05
    1.9620303065e-02    1.0155541406e+05
    1.9643751904e-02    1.0161259375e+05
    1.9667187706e-02    1.0166753906e+05
    1.9690606743e-02    1.0173053906e+05
    1.9714014605e-02    1.0179414844e+05
    1.9737409428e-02    1.0185358594e+05
    1.9760791212e-02    1.0191389844e+05
    1.9784159958e-02    1.0197841406e+05
    1.9807513803e-02    1.0203599219e+05
    1.9830854610e-02    1.0209077344e+05
    1.9854182377e-02    1.0214078906e+05
    1.9877497107e-02    1.0219252344e+05
    1.9900798798e-02    1.0223635156e+05
    1.9924087450e-02    1.0227902344e+05
    1.9947361201e-02    1.0231278906e+05
    1.9970623776e-02    1.0234866406e+05
    1.9993871450e-02    1.0238214844e+05
    2.0017107949e-02    1.0240565625e+05
    2.0040329546e-02    1.0242971094e+05
    2.0063538104e-02    1.0244828906e+05
    2.0086731762e-02    1.0246416406e+05
    2.0109914243e-02    1.0247339844e+05
    2.0133081824e-02    1.0247671094e+05
    2.0156236365e-02    1.0248005469e+05
    2.0179376006e-02    1.0248278125e+05
    2.0202504471e-02    1.0247264844e+05
    2.0225618035e-02    1.0246990625e+05
    2.0248720422e-02    1.0245335156e+05
    2.0271807909e-02    1.0244441406e+05
    2.0294882357e-02    1.0243016406e+05
    2.0317947492e-02    1.0241815625e+05
    2.0340997726e-02    1.0240172656e+05
    2.0364036784e-02    1.0238724219e+05
    2.0387060940e-02    1.0237057031e+05
    2.0410073921e-02    1.0234884375e+05
    2.0433073863e-02    1.0233386719e+05
    2.0456060767e-02    1.0231922656e+05
    2.0479036495e-02    1.0230225781e+05
    2.0501999184e-02    1.0228259375e+05
    2.0524948835e-02    1.0225614844e+05
    2.0547885448e-02    1.0223046875e+05
    2.0570809022e-02    1.0220457031e+05
    2.0593719557e-02    1.0218238281e+05
    2.0616617054e-02    1.0216321875e+05
    2.0639499649e-02    1.0214535156e+05
    2.0662369207e-02    1.0212731250e+05
    2.0685223863e-02    1.0210727344e+05
    2.0708063617e-02    1.0208559375e+05
    2.0730890334e-02    1.0206439844e+05
    2.0753700286e-02    1.0203805469e+05
    2.0776495337e-02    1.0202188281e+05
    2.0799275488e-02    1.0201028906e+05
    2.0822042599e-02    1.0200034375e+05
    2.0844791085e-02    1.0199121094e+05
    2.0867524669e-02    1.0197708594e+05
    2.0890241489e-02    1.0195777344e+05
    2.0912945271e-02    1.0195264844e+05
    2.0935632288e-02    1.0194269531e+05
    2.0958306268e-02    1.0194149219e+05
    2.0980965346e-02    1.0194339844e+05
    2.1003607661e-02    1.0194575781e+05
    2.1026238799e-02    1.0193208594e+05
    2.1048855036e-02    1.0192353906e+05
    2.1071458235e-02    1.0192032031e+05
    2.1094048396e-02    1.0191247656e+05
    2.1116625518e-02    1.0190934375e+05
    2.1139191464e-02    1.0190780469e+05
    2.1161744371e-02    1.0190200000e+05
    2.1184286103e-02    1.0188858594e+05
    2.1206818521e-02    1.0187839844e+05
    2.1229337901e-02    1.0186622656e+05
    2.1251846105e-02    1.0184850000e+05
    2.1274344996e-02    1.0184621094e+05
    2.1296832711e-02    1.0183553906e+05
    2.1319312975e-02    1.0182481250e+05
    2.1341778338e-02    1.0181306250e+05
    2.1364232525e-02    1.0179166406e+05
    2.1386675537e-02    1.0177737500e+05
    2.1409107372e-02    1.0176174219e+05
    2.1431528032e-02    1.0174041406e+05
    2.1453931928e-02    1.0172419531e+05
    2.1476324648e-02    1.0170755469e+05
    2.1498700604e-02    1.0168646094e+05
    2.1521063522e-02    1.0166852344e+05
    2.1543409675e-02    1.0165012500e+05
    2.1565740928e-02    1.0163133594e+05
    2.1588053554e-02    1.0161025000e+05
    2.1610351279e-02    1.0158866406e+05
    2.1632634103e-02    1.0157066406e+05
    2.1654898301e-02    1.0155689844e+05
    2.1677147597e-02    1.0153312500e+05
    2.1699378267e-02    1.0150989844e+05
    2.1721594036e-02    1.0149277344e+05
    2.1743793041e-02    1.0147822656e+05
    2.1765975282e-02    1.0146678906e+05
    2.1788140759e-02    1.0146058594e+05
    2.1810289472e-02    1.0145684375e+05
    2.1832419559e-02    1.0145444531e+05
    2.1854531020e-02    1.0145689844e+05
    2.1876627579e-02    1.0145847656e+05
    2.1898705512e-02    1.0146915625e+05
    2.1920768544e-02    1.0148547656e+05
    2.1942811087e-02    1.0150563281e+05
    2.1964838728e-02    1.0152799219e+05
    2.1986849606e-02    1.0154710156e+05
    2.2008845583e-02    1.0157528125e+05
    2.2030822933e-02    1.0159852344e+05
    2.2052785382e-02    1.0161928906e+05
    2.2074732929e-02    1.0164578906e+05
    2.2096665576e-02    1.0167328125e+05
    2.2118583322e-02    1.0169485156e+05
    2.2140489891e-02    1.0171650000e+05
    2.2162377834e-02    1.0173828125e+05
    2.2184254602e-02    1.0175419531e+05
    2.2206118330e-02    1.0177444531e+05
    2.2227969021e-02    1.0179022656e+05
    2.2249806672e-02    1.0180000781e+05
    2.2271629423e-02    1.0181007031e+05
    2.2293440998e-02    1.0182675000e+05
    2.2315241396e-02    1.0183855469e+05
    2.2337028757e-02    1.0184465625e+05
    2.2358803079e-02    1.0185542969e+05
    2.2380566224e-02    1.0186462500e+05
    2.2402318195e-02    1.0187333594e+05
    2.2424057126e-02    1.0187699219e+05
    2.2445784882e-02    1.0188478906e+05
    2.2467501462e-02    1.0189333594e+05
    2.2489206865e-02    1.0190500000e+05
    2.2510899231e-02    1.0190646094e+05
    2.2532582283e-02    1.0191281250e+05
    2.2554252297e-02    1.0191537500e+05
    2.2575911134e-02    1.0191227344e+05
    2.2597560659e-02    1.0190564844e+05
    2.2619199008e-02    1.0190596875e+05
    2.2640828043e-02    1.0189725781e+05
    2.2662445903e-02    1.0189663281e+05
    2.2684050724e-02    1.0188577344e+05
    2.2705646232e-02    1.0187421094e+05
    2.2727232426e-02    1.0186193750e+05
    2.2748809308e-02    1.0185205469e+05
    2.2770375013e-02    1.0183703906e+05
    2.2791929543e-02    1.0182518750e+05
    2.2813472897e-02    1.0181371094e+05
    2.2835006937e-02    1.0180217969e+05
    2.2856531665e-02    1.0178987500e+05
    2.2878047079e-02    1.0177171875e+05
    2.2899549454e-02    1.0176328906e+05
    2.2921044379e-02    1.0174921094e+05
    2.2942528129e-02    1.0173566406e+05
    2.2964000702e-02    1.0172141406e+05
    2.2985465825e-02    1.0170762500e+05
    2.3006917909e-02    1.0169568750e+05
    2.3028360680e-02    1.0168591406e+05
    2.3049792275e-02    1.0167914844e+05
    2.3071214557e-02    1.0166966406e+05
    2.3092625663e-02    1.0165150000e+05
    2.3114029318e-02    1.0164233594e+05
    2.3135419935e-02    1.0163256250e+05
    2.3156799376e-02    1.0162588281e+05
    2.3178169504e-02    1.0162346094e+05
    2.3199530318e-02    1.0161496094e+05
    2.3220879957e-02    1.0160677344e+05
    2.3242218420e-02    1.0159950000e+05
    2.3263547570e-02    1.0159277344e+05
    2.3284865543e-02    1.0159462500e+05
    2.3306174204e-02    1.0159731250e+05
    2.3327469826e-02    1.0159121875e+05
    2.3348756135e-02    1.0158558594e+05
    2.3370031267e-02    1.0159036719e+05
    2.3391297087e-02    1.0158425781e+05
    2.3412553594e-02    1.0156963281e+05
    2.3433798924e-02    1.0157475000e+05
    2.3455033079e-02    1.0157068750e+05
    2.3476256058e-02    1.0156714844e+05
    2.3497469723e-02    1.0157266406e+05
    2.3518672213e-02    1.0156916406e+05
    2.3539865389e-02    1.0156597656e+05
    2.3561049253e-02    1.0155209375e+05
    2.3582221940e-02    1.0154746094e+05
    2.3603385314e-02    1.0154253906e+05
    2.3624535650e-02    1.0153691406e+05
    2.3645676672e-02    1.0153189844e+05
    2.3666808382e-02    1.0152642969e+05
    2.3687927052e-02    1.0152152344e+05
    2.3709038273e-02    1.0151602344e+05
    2.3730138317e-02    1.0150928906e+05
    2.3751227185e-02    1.0150021875e+05
    2.3772306740e-02    1.0149685156e+05
    2.3793375120e-02    1.0149625000e+05
    2.3814432323e-02    1.0149371875e+05
    2.3835480213e-02    1.0149825781e+05
    2.3856516927e-02    1.0150222656e+05
    2.3877544329e-02    1.0150143750e+05
    2.3898560554e-02    1.0149952344e+05
    2.3919565603e-02    1.0149584375e+05
    2.3940561339e-02    1.0149516406e+05
    2.3961545900e-02    1.0149600781e+05
    2.3982519284e-02    1.0150087500e+05
    2.4003483355e-02    1.0151003906e+05
    2.4024436250e-02    1.0151060156e+05
    2.4045377970e-02    1.0151072656e+05
    2.4066310376e-02    1.0150989844e+05
    2.4087233469e-02    1.0151274219e+05
    2.4108145386e-02    1.0152378906e+05
    2.4129044265e-02    1.0153660156e+05
    2.4149935693e-02    1.0155172656e+05
    2.4170814082e-02    1.0156696875e+05
    2.4191683158e-02    1.0158266406e+05
    2.4212542921e-02    1.0159356250e+05
    2.4233391508e-02    1.0161259375e+05
    2.4254228920e-02    1.0163467969e+05
    2.4275057018e-02    1.0166146094e+05
    2.4295873940e-02    1.0168114844e+05
    2.4316681549e-02    1.0170633594e+05
    2.4337477982e-02    1.0173375000e+05
    2.4358265102e-02    1.0175568750e+05
    2.4379042909e-02    1.0178364844e+05
    2.4399809539e-02    1.0180328125e+05
    2.4420566857e-02    1.0183225000e+05
    2.4441312999e-02    1.0185196094e+05
    2.4462047964e-02    1.0187091406e+05
    2.4482775480e-02    1.0188812500e+05
    2.4503491819e-02    1.0190491406e+05
    2.4524198845e-02    1.0191600000e+05
    2.4544894695e-02    1.0192241406e+05
    2.4565581232e-02    1.0192816406e+05
    2.4586258456e-02    1.0192764844e+05
    2.4606924504e-02    1.0191822656e+05
    2.4627581239e-02    1.0190266406e+05
    2.4648228660e-02    1.0188064844e+05
    2.4668866768e-02    1.0185897656e+05
    2.4689495564e-02    1.0182636719e+05
    2.4710113183e-02    1.0179025000e+05
    2.4730721489e-02    1.0174949219e+05
    2.4751318619e-02    1.0171009375e+05
    2.4771906435e-02    1.0166740625e+05
    2.4792486802e-02    1.0162153906e+05
    2.4813055992e-02    1.0157896875e+05
    2.4833614007e-02    1.0153483594e+05
    2.4854162708e-02    1.0149756250e+05
    2.4874702096e-02    1.0146785156e+05
    2.4895232171e-02    1.0143897656e+05
    2.4915752932e-02    1.0141987500e+05
    2.4936262518e-02    1.0140785156e+05
    2.4956764653e-02    1.0140682031e+05
    2.4977253750e-02    1.0140971094e+05
    2.4997735396e-02    1.0142160156e+05
    2.5018205866e-02    1.0144175000e+05
    2.5038668886e-02    1.0146128906e+05
    2.5059120730e-02    1.0148547656e+05
    2.5079563260e-02    1.0150952344e+05
    2.5099996477e-02    1.0154100000e+05
    2.5120420381e-02    1.0157875000e+05
    2.5140833110e-02    1.0161491406e+05
    2.5161236525e-02    1.0164838281e+05
    2.5181630626e-02    1.0168405469e+05
    2.5202017277e-02    1.0171703125e+05
    2.5222390890e-02    1.0174464844e+05
    2.5242757052e-02    1.0177360156e+05
    2.5263112038e-02    1.0180439844e+05
    2.5283459574e-02    1.0182580469e+05
    2.5303795934e-02    1.0184275781e+05
    2.5324124843e-02    1.0186127344e+05
    2.5344440714e-02    1.0187910156e+05
    2.5364749134e-02    1.0189685156e+05
    2.5385048240e-02    1.0191389844e+05
    2.5405339897e-02    1.0193052344e+05
    2.5425618514e-02    1.0193739844e+05
    2.5445887819e-02    1.0195166406e+05
    2.5466147810e-02    1.0196122656e+05
    2.5486400351e-02    1.0196355469e+05
    2.5506639853e-02    1.0197535156e+05
    2.5526873767e-02    1.0198097656e+05
    2.5547094643e-02    1.0198107031e+05
    2.5567308068e-02    1.0198578125e+05
    2.5587510318e-02    1.0198510156e+05
    2.5607703254e-02    1.0198219531e+05
    2.5627886876e-02    1.0198438281e+05
    2.5648061186e-02    1.0198113281e+05
    2.5668226182e-02    1.0197750781e+05
    2.5688380003e-02    1.0197302344e+05
    2.5708526373e-02    1.0197343750e+05
    2.5728661567e-02    1.0196741406e+05
    2.5748789310e-02    1.0196288281e+05
    2.5768904015e-02    1.0196042969e+05
    2.5789011270e-02    1.0195393750e+05
    2.5809109211e-02    1.0195065625e+05
    2.5829195976e-02    1.0194466406e+05
    2.5849273428e-02    1.0193732031e+05
    2.5869343430e-02    1.0193789844e+05
    2.5889402255e-02    1.0193897656e+05
    2.5909451768e-02    1.0193891406e+05
    2.5929493830e-02    1.0193709375e+05
    2.5949522853e-02    1.0193264844e+05
    2.5969544426e-02    1.0193231250e+05
    2.5989556685e-02    1.0192003125e+05
    2.6009559631e-02    1.0191081250e+05
    2.6029553264e-02    1.0190594531e+05
    2.6049537584e-02    1.0190362500e+05
    2.6069512591e-02    1.0191064844e+05
    2.6089478284e-02    1.0190553906e+05
    2.6109432802e-02    1.0189477344e+05
    2.6129379869e-02    1.0189117969e+05
    2.6149315760e-02    1.0188803125e+05
    2.6169244200e-02    1.0188430469e+05
    2.6189163327e-02    1.0188171094e+05
    2.6209073141e-02    1.0187733594e+05
    2.6228975505e-02    1.0187462500e+05
    2.6248866692e-02    1.0187086719e+05
    2.6268748567e-02    1.0186785156e+05
    2.6288621128e-02    1.0186514844e+05
    2.6308484375e-02    1.0187247656e+05
    2.6328338310e-02    1.0187096094e+05
    2.6348184794e-02    1.0187013281e+05
    2.6368021965e-02    1.0186943750e+05
    2.6387847960e-02    1.0186774219e+05
    2.6407664642e-02    1.0186630469e+05
    2.6427472010e-02    1.0187488281e+05
    2.6447271928e-02    1.0187444531e+05
    2.6467062533e-02    1.0186852344e+05
    2.6486843824e-02    1.0186117969e+05
    2.6506617665e-02    1.0185935156e+05
    2.6526380330e-02    1.0186439844e+05
    2.6546133682e-02    1.0186381250e+05
    2.6565877721e-02    1.0186091406e+05
    2.6585612446e-02    1.0185169531e+05
    2.6605339721e-02    1.0185263281e+05
    2.6625057682e-02    1.0185178906e+05
    2.6644766331e-02    1.0184862500e+05
    2.6664465666e-02    1.0184591406e+05
    2.6684155688e-02    1.0184074219e+05
    2.6703836396e-02    1.0184092969e+05
    2.6723509654e-02    1.0183894531e+05
    2.6743173599e-02    1.0183716406e+05
    2.6762828231e-02    1.0184021875e+05
    2.6782475412e-02    1.0184266406e+05
    2.6802113280e-02    1.0184286719e+05
    2.6821739972e-02    1.0184210156e+05
    2.6841359213e-02    1.0184266406e+05
    2.6860967278e-02    1.0184453125e+05
    2.6880569756e-02    1.0185071094e+05
    2.6900164783e-02    1.0185385156e+05
    2.6919748634e-02    1.0185547656e+05
    2.6939325035e-02    1.0185641406e+05
    2.6958892122e-02    1.0185889844e+05
    2.6978449896e-02    1.0186971875e+05
    2.6997998357e-02    1.0187225000e+05
    2.7017539367e-02    1.0187433594e+05
    2.7037071064e-02    1.0187634375e+05
    2.7056595311e-02    1.0187853125e+05
    2.7076110244e-02    1.0188499219e+05
    2.7095617726e-02    1.0188900781e+05
    2.7115115896e-02    1.0188852344e+05
    2.7134604752e-02    1.0189064844e+05
    2.7154086158e-02    1.0188850781e+05
    2.7173558250e-02    1.0188986719e+05
    2.7193021029e-02    1.0189643750e+05
    2.7212476358e-02    1.0190225000e+05
    2.7231922373e-02    1.0190053906e+05
    2.7251357213e-02    1.0190208594e+05
    2.7270786464e-02    1.0189931250e+05
    2.7290204540e-02    1.0190355469e+05
    2.7309613302e-02    1.0190297656e+05
    2.7329014614e-02    1.0190160156e+05
    2.7348404750e-02    1.0190718750e+05
    2.7367785573e-02    1.0191364844e+05
    2.7387158945e-02    1.0191200781e+05
    2.7406521142e-02    1.0190884375e+05
    2.7425874025e-02    1.0190917969e+05
    2.7445219457e-02    1.0191607031e+05
    2.7464553714e-02    1.0191594531e+05
    2.7483878657e-02    1.0191521094e+05
    2.7503194287e-02    1.0192391406e+05
    2.7522502467e-02    1.0192853906e+05
    2.7541799471e-02    1.0192182031e+05
    2.7561087161e-02    1.0192361719e+05
    2.7580365539e-02    1.0192765625e+05
    2.7599634603e-02    1.0192757031e+05
    2.7618894354e-02    1.0193571875e+05
    2.7638144791e-02    1.0194040625e+05
    2.7657385916e-02    1.0193353125e+05
    2.7676619589e-02    1.0193460156e+05
    2.7695843950e-02    1.0193600781e+05
    2.7715058997e-02    1.0193728906e+05
    2.7734262869e-02    1.0193853125e+05
    2.7753459290e-02    1.0193978906e+05
    2.7772648260e-02    1.0194178125e+05
    2.7791827917e-02    1.0194272656e+05
    2.7810998261e-02    1.0194506250e+05
    2.7830159292e-02    1.0194696094e+05
    2.7849311009e-02    1.0194992969e+05
    2.7868455276e-02    1.0195032031e+05
    2.7887590230e-02    1.0195263281e+05
    2.7906717733e-02    1.0194314844e+05
    2.7925835922e-02    1.0194488281e+05
    2.7944946662e-02    1.0194539844e+05
    2.7964048088e-02    1.0194482031e+05
    2.7983140200e-02    1.0194675781e+05
    2.8002224863e-02    1.0195360156e+05
    2.8021300212e-02    1.0195837500e+05
    2.8040368110e-02    1.0195828906e+05
    2.8059426695e-02    1.0194997656e+05
    2.8078475967e-02    1.0195139844e+05
    2.8097519651e-02    1.0195277344e+05
    2.8116554022e-02    1.0195357031e+05
    2.8135580942e-02    1.0195438281e+05
    2.8154598549e-02    1.0196466406e+05
    2.8173606843e-02    1.0196594531e+05
    2.8192607686e-02    1.0195760156e+05
    2.8211599216e-02    1.0195888281e+05
    2.8230583295e-02    1.0195908594e+05
    2.8249559924e-02    1.0196103906e+05
    2.8268527240e-02    1.0196896875e+05
    2.8287487105e-02    1.0196883594e+05
    2.8306435794e-02    1.0196435156e+05
    2.8325378895e-02    1.0197024219e+05
    2.8344312683e-02    1.0196666406e+05
    2.8363237157e-02    1.0196764844e+05
    2.8382156044e-02    1.0197534375e+05
    2.8401065618e-02    1.0197769531e+05
    2.8419965878e-02    1.0196922656e+05
    2.8438858688e-02    1.0197031250e+05
    2.8457742184e-02    1.0197094531e+05
    2.8476616368e-02    1.0198097656e+05
    2.8495483100e-02    1.0198200781e+05
    2.8514338657e-02    1.0197607031e+05
    2.8533160686e-02    1.0197597656e+05
    2.8551930562e-02    1.0197599219e+05
    2.8570635244e-02    1.0198710156e+05
    2.8589271009e-02    1.0198810156e+05
    2.8607837856e-02    1.0199091406e+05
    2.8626350686e-02    1.0199124219e+05
    2.8644818813e-02    1.0199240625e+05
    2.8663259000e-02    1.0198533594e+05
    2.8681686148e-02    1.0198533594e+05
    2.8700113297e-02    1.0199582031e+05
    2.8718546033e-02    1.0199746094e+05
    2.8736986220e-02    1.0200039844e+05
    2.8755431995e-02    1.0200115625e+05
    2.8773877770e-02    1.0200357031e+05
    2.8792314231e-02    1.0200483594e+05
    2.8810730204e-02    1.0200656250e+05
    2.8829116374e-02    1.0200888281e+05
    2.8847465292e-02    1.0201066406e+05
    2.8865773231e-02    1.0201183594e+05
    2.8884036466e-02    1.0201335156e+05
    2.8902258724e-02    1.0201239844e+05
    2.8920443729e-02    1.0200525000e+05
    2.8938598931e-02    1.0200716406e+05
    2.8956729919e-02    1.0200684375e+05
    2.8974846005e-02    1.0201243750e+05
    2.8992949054e-02    1.0201806250e+05
    2.9011042789e-02    1.0200864844e+05
    2.9029129073e-02    1.0200880469e+05
    2.9047204182e-02    1.0200883594e+05
    2.9065268114e-02    1.0200928906e+05
    2.9083315283e-02    1.0200953125e+05
    2.9101338238e-02    1.0200630469e+05
    2.9119335115e-02    1.0200633594e+05
    2.9137304053e-02    1.0201025781e+05
    2.9155241325e-02    1.0200958594e+05
    2.9173148796e-02    1.0199960156e+05
    2.9191024601e-02    1.0199869531e+05
    2.9208874330e-02    1.0200355469e+05
    2.9226697981e-02    1.0200871875e+05
    2.9244501144e-02    1.0200866406e+05
    2.9262285680e-02    1.0200047656e+05
    2.9280053452e-02    1.0199775000e+05
    2.9297806323e-02    1.0199785156e+05
    2.9315544292e-02    1.0199688281e+05
    2.9333265498e-02    1.0199635156e+05
    2.9350971803e-02    1.0200032031e+05
    2.9368655756e-02    1.0199553906e+05
    2.9386319220e-02    1.0199596094e+05
    2.9403960332e-02    1.0199884375e+05
    2.9421577230e-02    1.0200719531e+05
    2.9439168051e-02    1.0200061719e+05
    2.9456734657e-02    1.0200046094e+05
    2.9474277049e-02    1.0200027344e+05
    2.9491795227e-02    1.0201108594e+05
    2.9509292915e-02    1.0201171875e+05
    2.9526771978e-02    1.0201291406e+05
    2.9544232413e-02    1.0201410156e+05
    2.9561674222e-02    1.0201368750e+05
    2.9579099268e-02    1.0201459375e+05
    2.9596509412e-02    1.0201563281e+05
    2.9613900930e-02    1.0202135156e+05
    2.9631273821e-02    1.0202053906e+05
    2.9648626223e-02    1.0202964844e+05
    2.9665958136e-02    1.0203197656e+05
    2.9683271423e-02    1.0203383594e+05
    2.9700560495e-02    1.0203465625e+05
    2.9717829078e-02    1.0202834375e+05
    2.9735075310e-02    1.0202988281e+05
    2.9752301052e-02    1.0203137500e+05
    2.9769508168e-02    1.0204211719e+05
    2.9786696658e-02    1.0204325000e+05
    2.9803866521e-02    1.0204546094e+05
    2.9821017757e-02    1.0204587500e+05
    2.9838152230e-02    1.0204278906e+05
    2.9855269939e-02    1.0203935156e+05
    2.9872370884e-02    1.0204057031e+05
    2.9889453202e-02    1.0204990625e+05
    2.9906518757e-02    1.0205003906e+05
    2.9923565686e-02    1.0204564844e+05
    2.9940593988e-02    1.0204437500e+05
    2.9957601801e-02    1.0204300781e+05
    2.9974590987e-02    1.0205028125e+05
    2.9991561547e-02    1.0205200781e+05
    3.0008511618e-02    1.0204605469e+05
    3.0025444925e-02    1.0204678906e+05
    3.0042361468e-02    1.0204756250e+05
    3.0059259385e-02    1.0204722656e+05
    3.0076142401e-02    1.0204797656e+05
    3.0093006790e-02    1.0204939844e+05
    3.0109854415e-02    1.0205340625e+05
    3.0126683414e-02    1.0205266406e+05
    3.0143497512e-02    1.0205427344e+05
    3.0160292983e-02    1.0205758594e+05
    3.0177071691e-02    1.0205875781e+05
    3.0193833634e-02    1.0205760156e+05
    3.0210576952e-02    1.0205871094e+05
    3.0227303505e-02    1.0206574219e+05
    3.0244011432e-02    1.0206314844e+05
    3.0260702595e-02    1.0206394531e+05
    3.0277376994e-02    1.0206700781e+05
    3.0294034630e-02    1.0206900781e+05
    3.0310675502e-02    1.0207058594e+05
    3.0327299610e-02    1.0207332031e+05
    3.0343905091e-02    1.0207491406e+05
    3.0360495672e-02    1.0207658594e+05
    3.0377071351e-02    1.0207936719e+05
    3.0393628404e-02    1.0208108594e+05
    3.0410168692e-02    1.0208283594e+05
    3.0426690355e-02    1.0208441406e+05
    3.0443195254e-02    1.0208516406e+05
    3.0459685251e-02    1.0208436719e+05
    3.0476156622e-02    1.0207802344e+05
    3.0492611229e-02    1.0207349219e+05
    3.0509050936e-02    1.0206711719e+05
    3.0525473878e-02    1.0206393750e+05
    3.0541881919e-02    1.0205585156e+05
    3.0558273196e-02    1.0205330469e+05
    3.0574647710e-02    1.0205235156e+05
    3.0591005459e-02    1.0205017969e+05
    3.0607348308e-02    1.0204775781e+05
    3.0623674393e-02    1.0204490625e+05
    3.0639985576e-02    1.0203293750e+05
    3.0656279996e-02    1.0202033594e+05
    3.0672557652e-02    1.0201512500e+05
    3.0688818544e-02    1.0200396094e+05
    3.0705062672e-02    1.0199963281e+05
    3.0721291900e-02    1.0200360156e+05
    3.0737506226e-02    1.0199953906e+05
    3.0753703788e-02    1.0200506250e+05
    3.0769886449e-02    1.0200236719e+05
    3.0786054209e-02    1.0200103125e+05
    3.0802207068e-02    1.0200327344e+05
    3.0818343163e-02    1.0200437500e+05
    3.0834466219e-02    1.0200103906e+05
    3.0850572512e-02    1.0200021094e+05
    3.0866663903e-02    1.0200111719e+05
    3.0882738531e-02    1.0200831250e+05
    3.0898798257e-02    1.0201742969e+05
    3.0914843082e-02    1.0202286719e+05
    3.0930871144e-02    1.0202868750e+05
    3.0946886167e-02    1.0203744531e+05
    3.0962884426e-02    1.0204197656e+05
    3.0978867784e-02    1.0204460156e+05
    3.0994836241e-02    1.0205621875e+05
    3.1010789797e-02    1.0205903125e+05
    3.1026728451e-02    1.0206396094e+05
    3.1042650342e-02    1.0207278125e+05
    3.1058559194e-02    1.0208246875e+05
    3.1074455008e-02    1.0208793750e+05
    3.1090334058e-02    1.0209289844e+05
    3.1106200069e-02    1.0209797656e+05
    3.1122051179e-02    1.0210515625e+05
    3.1137887388e-02    1.0210950781e+05
    3.1153710559e-02    1.0211234375e+05
    3.1169516966e-02    1.0211559375e+05
    3.1185310334e-02    1.0211963281e+05
    3.1201090664e-02    1.0211405469e+05
    3.1216854230e-02    1.0211721094e+05
    3.1232602894e-02    1.0211078906e+05
    3.1248336658e-02    1.0211319531e+05
    3.1264055520e-02    1.0211528906e+05
    3.1279761344e-02    1.0211238281e+05
    3.1295452267e-02    1.0210952344e+05
    3.1311132014e-02    1.0211096094e+05
    3.1326796860e-02    1.0211233594e+05
    3.1342446804e-02    1.0211372656e+05
    3.1358085573e-02    1.0211500781e+05
    3.1373709440e-02    1.0211489844e+05
    3.1389318407e-02    1.0210652344e+05
    3.1404916197e-02    1.0210825781e+05
    3.1420499086e-02    1.0210750781e+05
    3.1436067075e-02    1.0210897656e+05
    3.1451620162e-02    1.0210924219e+05
    3.1467158347e-02    1.0210825781e+05
    3.1482685357e-02    1.0210966406e+05
    3.1498193741e-02    1.0210981250e+05
    3.1513694674e-02    1.0210519531e+05
    3.1529176980e-02    1.0210761719e+05
    3.1544648111e-02    1.0211121875e+05
    3.1560108066e-02    1.0211141406e+05
    3.1575553119e-02    1.0211160156e+05
    3.1590986997e-02    1.0211061719e+05
    3.1606405973e-02    1.0210846094e+05
    3.1621813774e-02    1.0210742969e+05
    3.1637206674e-02    1.0210696094e+05
    3.1652588397e-02    1.0211217969e+05
    3.1667951494e-02    1.0211239844e+05
    3.1683307141e-02    1.0210727344e+05
    3.1698647887e-02    1.0210332031e+05
    3.1713977456e-02    1.0210255469e+05
    3.1729292125e-02    1.0210264844e+05
    3.1744595617e-02    1.0210191406e+05
    3.1759884208e-02    1.0209399219e+05
    3.1775161624e-02    1.0209021875e+05
    3.1790427864e-02    1.0208847656e+05
    3.1805675477e-02    1.0208372656e+05
    3.1820915639e-02    1.0207953906e+05
    3.1836140901e-02    1.0208155469e+05
    3.1851354986e-02    1.0207983594e+05
    3.1866557896e-02    1.0207934375e+05
    3.1881745905e-02    1.0207827344e+05
    3.1896922737e-02    1.0207608594e+05
    3.1912088394e-02    1.0207457031e+05
    3.1927239150e-02    1.0207262500e+05
    3.1942378730e-02    1.0207090625e+05
    3.1957507133e-02    1.0207532031e+05
    3.1972620636e-02    1.0207975000e+05
    3.1987726688e-02    1.0207934375e+05
    3.2002814114e-02    1.0207915625e+05
    3.2017890364e-02    1.0208014844e+05
    3.2032959163e-02    1.0207997656e+05
    3.2048013061e-02    1.0207972656e+05
    3.2063052058e-02    1.0207927344e+05
    3.2078083605e-02    1.0207292969e+05
    3.2093103975e-02    1.0206725000e+05
    3.2108109444e-02    1.0206608594e+05
    3.2123107463e-02    1.0206425781e+05
    3.2138090581e-02    1.0206603906e+05
    3.2153062522e-02    1.0206746094e+05
    3.2168023288e-02    1.0206886719e+05
    3.2182972878e-02    1.0206919531e+05
    3.2197911292e-02    1.0206503906e+05
    3.2212834805e-02    1.0206432031e+05
    3.2227750868e-02    1.0206311719e+05
    3.2242652029e-02    1.0206785156e+05
    3.2257542014e-02    1.0206747656e+05
    3.2272424549e-02    1.0206719531e+05
    3.2287292182e-02    1.0206658594e+05
    3.2302148640e-02    1.0207084375e+05
    3.2316997647e-02    1.0207114844e+05
    3.2331831753e-02    1.0207209375e+05
    3.2346658409e-02    1.0207758594e+05
    3.2361470163e-02    1.0207791406e+05
    3.2376270741e-02    1.0207287500e+05
    3.2391063869e-02    1.0206903906e+05
    3.2405842096e-02    1.0206792969e+05
    3.2420612872e-02    1.0206792969e+05
    3.2435368747e-02    1.0206750781e+05
    3.2450113446e-02    1.0207009375e+05
    3.2464850694e-02    1.0207664844e+05
    3.2479573041e-02    1.0207228125e+05
    3.2494287938e-02    1.0206802344e+05
    3.2508991659e-02    1.0206822656e+05
    3.2523684204e-02    1.0207539844e+05
    3.2538365573e-02    1.0207375000e+05
    3.2553035766e-02    1.0207006250e+05
    3.2567698509e-02    1.0207188281e+05
    3.2582346350e-02    1.0206925781e+05
    3.2596986741e-02    1.0206941406e+05
    3.2611619681e-02    1.0207197656e+05
    3.2626237720e-02    1.0207218750e+05
    3.2640848309e-02    1.0206997656e+05
    3.2655447721e-02    1.0207014844e+05
    3.2670035958e-02    1.0206907031e+05
    3.2684613019e-02    1.0206906250e+05
    3.2699178904e-02    1.0206881250e+05
    3.2713737339e-02    1.0206833594e+05
    3.2728284597e-02    1.0205825000e+05
    3.2742820680e-02    1.0205764844e+05
    3.2757349312e-02    1.0205696094e+05
    3.2771866769e-02    1.0205569531e+05
    3.2786373049e-02    1.0205347656e+05
    3.2800871879e-02    1.0206177344e+05
    3.2815355808e-02    1.0206109375e+05
    3.2829832286e-02    1.0206052344e+05
    3.2844301313e-02    1.0205989844e+05
    3.2858755440e-02    1.0205922656e+05
    3.2873202115e-02    1.0205846875e+05
    3.2887637615e-02    1.0205430469e+05
    3.2902065665e-02    1.0205397656e+05
    3.2916482538e-02    1.0205128906e+05
    3.2930891961e-02    1.0205156250e+05
    3.2945290208e-02    1.0205490625e+05
    3.2959677279e-02    1.0205478906e+05
    3.2974056900e-02    1.0205414844e+05
    3.2988425344e-02    1.0204422656e+05
    3.3002786338e-02    1.0204338281e+05
    3.3017136157e-02    1.0204371875e+05
    3.3031478524e-02    1.0204309375e+05
    3.3045809716e-02    1.0205289844e+05
    3.3060129732e-02    1.0205136719e+05
    3.3074442297e-02    1.0205109375e+05
    3.3088747412e-02    1.0205196094e+05
    3.3103041351e-02    1.0205275000e+05
    3.3117324114e-02    1.0205232031e+05
    3.3131599426e-02    1.0204597656e+05
    3.3145863563e-02    1.0204324219e+05
    3.3160120249e-02    1.0204396094e+05
    3.3174365759e-02    1.0204478906e+05
    3.3188603818e-02    1.0204466406e+05
    3.3202830702e-02    1.0204691406e+05
    3.3217050135e-02    1.0205196875e+05
    3.3231258392e-02    1.0204914844e+05
    3.3245459199e-02    1.0204689844e+05
    3.3259648830e-02    1.0204693750e+05
    3.3273831010e-02    1.0204718750e+05
    3.3288005739e-02    1.0205166406e+05
    3.3302169293e-02    1.0204752344e+05
    3.3316325396e-02    1.0204575000e+05
    3.3330474049e-02    1.0204439844e+05
    3.3344611526e-02    1.0204891406e+05
    3.3358741552e-02    1.0205097656e+05
    3.3372864127e-02    1.0204959375e+05
    3.3386975527e-02    1.0204575000e+05
    3.3401079476e-02    1.0204089844e+05
    3.3415172249e-02    1.0204063281e+05
    3.3429257572e-02    1.0204271094e+05
    3.3443335444e-02    1.0204247656e+05
    3.3457405865e-02    1.0203996875e+05
    3.3471468836e-02    1.0204019531e+05
    3.3485524356e-02    1.0203921094e+05
    3.3499568701e-02    1.0203881250e+05
    3.3513605595e-02    1.0203903125e+05
    3.3527631313e-02    1.0203866406e+05
    3.3541653305e-02    1.0203883594e+05
    3.3555664122e-02    1.0203837500e+05
    3.3569667488e-02    1.0203666406e+05
    3.3583663404e-02    1.0203541406e+05
    3.3597648144e-02    1.0203391406e+05
    3.3611625433e-02    1.0202377344e+05
    3.3625595272e-02    1.0202502344e+05
    3.3639557660e-02    1.0202397656e+05
    3.3653512597e-02    1.0202283594e+05
    3.3667460084e-02    1.0202521875e+05
    3.3681396395e-02    1.0202228906e+05
    3.3695328981e-02    1.0201596094e+05
    3.3709254116e-02    1.0201562500e+05
    3.3723168075e-02    1.0201287500e+05
    3.3737078309e-02    1.0201116406e+05
    3.3750977367e-02    1.0201043750e+05
    3.3764872700e-02    1.0200733594e+05
    3.3778760582e-02    1.0200080469e+05
    3.3792637289e-02    1.0199988281e+05
    3.3806510270e-02    1.0200228906e+05
    3.3820372075e-02    1.0199905469e+05
    3.3834230155e-02    1.0198938281e+05
    3.3848077059e-02    1.0198422656e+05
    3.3861916512e-02    1.0198182031e+05
    3.3875752240e-02    1.0197942969e+05
    3.3889576793e-02    1.0197700000e+05
    3.3903393894e-02    1.0197577344e+05
    3.3917203546e-02    1.0197205469e+05
    3.3931009471e-02    1.0196941406e+05
    3.3944804221e-02    1.0196674219e+05
    3.3958595246e-02    1.0196455469e+05
    3.3972378820e-02    1.0196111719e+05
    3.3986151218e-02    1.0195812500e+05
    3.3999919891e-02    1.0195499219e+05
    3.4013681114e-02    1.0195069531e+05
    3.4027434886e-02    1.0194753125e+05
    3.4041177481e-02    1.0194434375e+05
    3.4054916352e-02    1.0194235156e+05
    3.4068647772e-02    1.0193878125e+05
    3.4082375467e-02    1.0193528906e+05
    3.4096091986e-02    1.0193377344e+05
    3.4109804779e-02    1.0193021094e+05
    3.4123510122e-02    1.0193128906e+05
    3.4137208015e-02    1.0193258594e+05
    3.4150898457e-02    1.0193177344e+05
    3.4164581448e-02    1.0193221094e+05
    3.4178260714e-02    1.0193034375e+05
    3.4191932529e-02    1.0192847656e+05
    3.4205596894e-02    1.0192766406e+05
    3.4219253808e-02    1.0192124219e+05
    3.4232903272e-02    1.0191925781e+05
    3.4246545285e-02    1.0191327344e+05
    3.4260183573e-02    1.0191655469e+05
    3.4273810685e-02    1.0191971094e+05
    3.4287434071e-02    1.0191840625e+05
    3.4301050007e-02    1.0191721094e+05
    3.4314658493e-02    1.0191503906e+05
    3.4328263253e-02    1.0191528125e+05
    3.4341860563e-02    1.0191896094e+05
    3.4355450422e-02    1.0191825781e+05
    3.4369036555e-02    1.0191871094e+05
    3.4382611513e-02    1.0191766406e+05
    3.4396182746e-02    1.0191652344e+05
    3.4409742802e-02    1.0192160156e+05
    3.4423299134e-02    1.0192105469e+05
    3.4436848015e-02    1.0191358594e+05
    3.4450393170e-02    1.0191300000e+05
    3.4463927150e-02    1.0191472656e+05
    3.4477461129e-02    1.0191774219e+05
    3.4490987659e-02    1.0191959375e+05
    3.4504506737e-02    1.0191344531e+05
    3.4518022090e-02    1.0190816406e+05
    3.4531529993e-02    1.0190750000e+05
    3.4545030445e-02    1.0190684375e+05
    3.4558523446e-02    1.0190622656e+05
    3.4572008997e-02    1.0190678125e+05
    3.4585487098e-02    1.0190628906e+05
    3.4598957747e-02    1.0191040625e+05
    3.4612424672e-02    1.0190646875e+05
    3.4625884145e-02    1.0190375000e+05
    3.4639336169e-02    1.0190325000e+05
    3.4652780741e-02    1.0190272656e+05
    3.4666225314e-02    1.0190208594e+05
    3.4679658711e-02    1.0190131250e+05
    3.4693088382e-02    1.0189986719e+05
    3.4706510603e-02    1.0189935156e+05
    3.4719929099e-02    1.0189578906e+05
    3.4733340144e-02    1.0188965625e+05
    3.4746743739e-02    1.0188558594e+05
    3.4760143608e-02    1.0188375000e+05
    3.4773536026e-02    1.0188134375e+05
    3.4786924720e-02    1.0188005469e+05
    3.4800305963e-02    1.0187825000e+05
    3.4813679755e-02    1.0187540625e+05
    3.4827046096e-02    1.0187491406e+05
    3.4840408713e-02    1.0187453906e+05
    3.4853763878e-02    1.0187421094e+05
    3.4867111593e-02    1.0187091406e+05
    3.4880455583e-02    1.0186953125e+05
    3.4893795848e-02    1.0186757031e+05
    3.4907124937e-02    1.0187302344e+05
    3.4920454025e-02    1.0186894531e+05
    3.4933775663e-02    1.0186272656e+05
    3.4947093576e-02    1.0186053125e+05
    3.4960404038e-02    1.0185935156e+05
    3.4973710775e-02    1.0185696875e+05
    3.4987010062e-02    1.0185505469e+05
endcurve
