Curveplot
LS-DYNA keyword deck by LS-PrePost                          
Time
Pressure
Defined Connection
Pressure @ 66 #pts=1745
* Minval=     9.9901710938e+04 at time=         0.0164174438
* Maxval=     1.6806692188e+05 at time=         0.0070778946
    0.0000000000e+00    9.9996789062e+04
    3.3812357287e-05    9.9996789062e+04
    6.1326652940e-05    9.9999335938e+04
    8.9102875791e-05    9.9997250000e+04
    1.1682785407e-04    9.9997367188e+04
    1.4461828687e-04    9.9998835938e+04
    1.7236733402e-04    1.0000064844e+05
    2.0016246708e-04    1.0000941406e+05
    2.2795486439e-04    9.9999750000e+04
    2.5574557367e-04    9.9999781250e+04
    2.8353667585e-04    1.0000066406e+05
    3.1133697485e-04    9.9992398438e+04
    3.3912662184e-04    9.9999156250e+04
    3.6691734567e-04    9.9999312500e+04
    3.9470891352e-04    9.9999742188e+04
    4.2249175021e-04    1.0000717969e+05
    4.5027161832e-04    1.0000092969e+05
    4.7804549104e-04    1.0000121094e+05
    5.0581363030e-04    1.0000297656e+05
    5.3357944125e-04    1.0000228125e+05
    5.6134146871e-04    9.9995335938e+04
    5.8909942163e-04    9.9995968750e+04
    6.1685312539e-04    1.0000028125e+05
    6.4460188150e-04    1.0000025781e+05
    6.7234638846e-04    1.0000000781e+05
    7.0008635521e-04    1.0000049219e+05
    7.2782178177e-04    9.9992625000e+04
    7.5555208605e-04    1.0000271875e+05
    7.8327720985e-04    1.0000453906e+05
    8.1099680392e-04    1.0000497656e+05
    8.3871174138e-04    1.0000197656e+05
    8.6642213864e-04    1.0000211719e+05
    8.9412782108e-04    9.9994875000e+04
    9.2182843946e-04    1.0000089844e+05
    9.4952445943e-04    9.9998023438e+04
    9.7721535712e-04    9.9991789062e+04
    1.0049008997e-03    1.0000281250e+05
    1.0325826006e-03    1.0001030469e+05
    1.0602590628e-03    1.0001091406e+05
    1.0879321489e-03    1.0000172656e+05
    1.1155996472e-03    9.9991351562e+04
    1.1432634201e-03    9.9990179688e+04
    1.1709230021e-03    9.9990914062e+04
    1.1985785095e-03    1.0000046094e+05
    1.2262313394e-03    1.0000039844e+05
    1.2538790470e-03    1.0001196094e+05
    1.2815232622e-03    1.0001084375e+05
    1.3091630535e-03    1.0000497656e+05
    1.3368004002e-03    1.0000196094e+05
    1.3644339051e-03    1.0000431250e+05
    1.3920635683e-03    1.0002028906e+05
    1.4196902048e-03    1.0005108594e+05
    1.4473132323e-03    1.0010590625e+05
    1.4749332331e-03    1.0019602344e+05
    1.5025498578e-03    1.0032611719e+05
    1.5301633393e-03    1.0051135156e+05
    1.5577742597e-03    1.0077156250e+05
    1.5853822697e-03    1.0109652344e+05
    1.6129877185e-03    1.0147014844e+05
    1.6405890929e-03    1.0186743750e+05
    1.6681876732e-03    1.0225517969e+05
    1.6957829939e-03    1.0259941406e+05
    1.7233766848e-03    1.0286466406e+05
    1.7509678146e-03    1.0304984375e+05
    1.7785291420e-03    1.0313991406e+05
    1.8060547300e-03    1.0313782031e+05
    1.8335470231e-03    1.0305349219e+05
    1.8610082334e-03    1.0291432031e+05
    1.8884401070e-03    1.0274658594e+05
    1.9158447394e-03    1.0257855469e+05
    1.9432241097e-03    1.0242502344e+05
    1.9705800805e-03    1.0229383594e+05
    1.9979148638e-03    1.0222416406e+05
    2.0252298564e-03    1.0219328125e+05
    2.0525271539e-03    1.0220850781e+05
    2.0798076876e-03    1.0226622656e+05
    2.1070730872e-03    1.0234136719e+05
    2.1343247499e-03    1.0242066406e+05
    2.1615643054e-03    1.0248799219e+05
    2.1887931507e-03    1.0252821094e+05
    2.2160108201e-03    1.0254253906e+05
    2.2432196420e-03    1.0254346094e+05
    2.2704207804e-03    1.0251768750e+05
    2.2976147011e-03    1.0247928125e+05
    2.3248014040e-03    1.0244110156e+05
    2.3519827519e-03    1.0241305469e+05
    2.3791582789e-03    1.0239594531e+05
    2.4063293822e-03    1.0238491406e+05
    2.4334960617e-03    1.0238628125e+05
    2.4606597144e-03    1.0238805469e+05
    2.4878205732e-03    1.0240719531e+05
    2.5149781723e-03    1.0242883594e+05
    2.5421329774e-03    1.0244339844e+05
    2.5692859199e-03    1.0244806250e+05
    2.5964374654e-03    1.0245272656e+05
    2.6235871483e-03    1.0244427344e+05
    2.6507352013e-03    1.0243650000e+05
    2.6778825559e-03    1.0243094531e+05
    2.7050296776e-03    1.0242453125e+05
    2.7321761008e-03    1.0241875781e+05
    2.7593218256e-03    1.0241352344e+05
    2.7864677832e-03    1.0241546094e+05
    2.8136142064e-03    1.0242200781e+05
    2.8407603968e-03    1.0242483594e+05
    2.8679079842e-03    1.0244021094e+05
    2.8950548731e-03    1.0246272656e+05
    2.9222022276e-03    1.0249321094e+05
    2.9493502807e-03    1.0253572656e+05
    2.9764990322e-03    1.0257835156e+05
    3.0036487151e-03    1.0263716406e+05
    3.0307997949e-03    1.0271585156e+05
    3.0579508748e-03    1.0281100781e+05
    3.0851035845e-03    1.0291887500e+05
    3.1122572254e-03    1.0302447656e+05
    3.1394117977e-03    1.0311772656e+05
    3.1665677670e-03    1.0319652344e+05
    3.1937246677e-03    1.0325803125e+05
    3.2208829653e-03    1.0330285156e+05
    3.2480424270e-03    1.0331405469e+05
    3.2752046827e-03    1.0329849219e+05
    3.2952371985e-03    1.0325652344e+05
    3.3145032357e-03    1.0321827344e+05
    3.3336398192e-03    1.0318152344e+05
    3.3528339118e-03    1.0314325781e+05
    3.3720366191e-03    1.0310534375e+05
    3.3912549261e-03    1.0306466406e+05
    3.4104890656e-03    1.0302269531e+05
    3.4297339153e-03    1.0297552344e+05
    3.4486323129e-03    1.0293089844e+05
    3.4671388566e-03    1.0287869531e+05
    3.4854323603e-03    1.0282592969e+05
    3.5036695190e-03    1.0276971094e+05
    3.5219141282e-03    1.0270460156e+05
    3.5401545465e-03    1.0262618750e+05
    3.5583588760e-03    1.0255900781e+05
    3.5765271168e-03    1.0249015625e+05
    3.5946895368e-03    1.0242858594e+05
    3.6139658187e-03    1.0237753906e+05
    3.6330535077e-03    1.0233005469e+05
    3.6521453876e-03    1.0229249219e+05
    3.6699753255e-03    1.0225797656e+05
    3.6875614896e-03    1.0223366406e+05
    3.7050142419e-03    1.0220694531e+05
    3.7224807311e-03    1.0219160156e+05
    3.7400643341e-03    1.0217046875e+05
    3.7577797193e-03    1.0215731250e+05
    3.7755726371e-03    1.0215222656e+05
    3.7933769636e-03    1.0215049219e+05
    3.8111612666e-03    1.0214143750e+05
    3.8289318327e-03    1.0213632031e+05
    3.8467168342e-03    1.0212799219e+05
    3.8645383902e-03    1.0211962500e+05
    3.8824023213e-03    1.0210875000e+05
    3.9002960548e-03    1.0209841406e+05
    3.9182156324e-03    1.0208793750e+05
    3.9361710660e-03    1.0207533594e+05
    3.9541716687e-03    1.0205852344e+05
    3.9733103476e-03    1.0204127344e+05
    3.9924201556e-03    1.0201450000e+05
    4.0104058571e-03    1.0199696875e+05
    4.0284004062e-03    1.0198938281e+05
    4.0464363992e-03    1.0197944531e+05
    4.0656095371e-03    1.0197060156e+05
    4.0847789496e-03    1.0196403125e+05
    4.1039343923e-03    1.0196083594e+05
    4.1219722480e-03    1.0195764844e+05
    4.1400394402e-03    1.0194627344e+05
    4.1591953486e-03    1.0193980469e+05
    4.1784178466e-03    1.0193393750e+05
    4.1976389475e-03    1.0192314844e+05
    4.2168586515e-03    1.0191709375e+05
    4.2360713705e-03    1.0190999219e+05
    4.2552771047e-03    1.0189935156e+05
    4.2744791135e-03    1.0188833594e+05
    4.2936825193e-03    1.0187791406e+05
    4.3128933758e-03    1.0186319531e+05
    4.3321144767e-03    1.0184288281e+05
    4.3513495475e-03    1.0182839844e+05
    4.3705995195e-03    1.0182183594e+05
    4.3898657896e-03    1.0180453906e+05
    4.4091497548e-03    1.0178946094e+05
    4.4284537435e-03    1.0176207031e+05
    4.4477786869e-03    1.0172800000e+05
    4.4671236537e-03    1.0167827344e+05
    4.4864914380e-03    1.0162214844e+05
    4.5058806427e-03    1.0155786719e+05
    4.5252908021e-03    1.0148334375e+05
    4.5447219163e-03    1.0140178906e+05
    4.5641721226e-03    1.0131216406e+05
    4.5836409554e-03    1.0121714844e+05
    4.6031279489e-03    1.0110916406e+05
    4.6226321720e-03    1.0098897656e+05
    4.6421540901e-03    1.0086625781e+05
    4.6616927721e-03    1.0073760156e+05
    4.6812482178e-03    1.0061250781e+05
    4.7008208930e-03    1.0049658594e+05
    4.7204112634e-03    1.0039152344e+05
    4.7400193289e-03    1.0030785156e+05
    4.7596455552e-03    1.0023321875e+05
    4.7792894766e-03    1.0017890625e+05
    4.7989510931e-03    1.0015247656e+05
    4.8186304048e-03    1.0014535156e+05
    4.8383255489e-03    1.0015353125e+05
    4.8580355942e-03    1.0018702344e+05
    4.8777610064e-03    1.0023162500e+05
    4.8975008540e-03    1.0028872656e+05
    4.9172551371e-03    1.0035336719e+05
    4.9370229244e-03    1.0041317969e+05
    4.9568060786e-03    1.0046978125e+05
    4.9766036682e-03    1.0052907031e+05
    4.9964170903e-03    1.0057436719e+05
    5.0162458792e-03    1.0061383594e+05
    5.0360900350e-03    1.0064618750e+05
    5.0559476949e-03    1.0066521875e+05
    5.0758207217e-03    1.0067958594e+05
    5.0957072526e-03    1.0068133594e+05
    5.1156077534e-03    1.0067649219e+05
    5.1355226897e-03    1.0066466406e+05
    5.1554525271e-03    1.0064889844e+05
    5.1753963344e-03    1.0063015625e+05
    5.1953555085e-03    1.0061278906e+05
    5.2153295837e-03    1.0059822656e+05
    5.2353194915e-03    1.0058199219e+05
    5.2553247660e-03    1.0057712500e+05
    5.2753463387e-03    1.0057385156e+05
    5.2953832783e-03    1.0058081250e+05
    5.3154369816e-03    1.0058185156e+05
    5.3355065174e-03    1.0058459375e+05
    5.3555918857e-03    1.0058708594e+05
    5.3756926209e-03    1.0059975000e+05
    5.3958082572e-03    1.0060812500e+05
    5.4159392603e-03    1.0062158594e+05
    5.4360851645e-03    1.0063700781e+05
    5.4562464356e-03    1.0064760156e+05
    5.4764230736e-03    1.0065942969e+05
    5.4966160096e-03    1.0066657031e+05
    5.5168238468e-03    1.0067371094e+05
    5.5370470509e-03    1.0067260156e+05
    5.5572865531e-03    1.0067471094e+05
    5.5775423534e-03    1.0067227344e+05
    5.5978130549e-03    1.0066860156e+05
    5.6181000546e-03    1.0066574219e+05
    5.6384028867e-03    1.0066950000e+05
    5.6587206200e-03    1.0067308594e+05
    5.6790532544e-03    1.0067594531e+05
    5.6994007900e-03    1.0067828906e+05
    5.7197632268e-03    1.0068959375e+05
    5.7401410304e-03    1.0068436719e+05
    5.7605337352e-03    1.0068884375e+05
    5.7809422724e-03    1.0069247656e+05
    5.8013652451e-03    1.0069518750e+05
    5.8218040504e-03    1.0069816406e+05
    5.8422577567e-03    1.0070139844e+05
    5.8627268299e-03    1.0070625781e+05
    5.8832112700e-03    1.0071944531e+05
    5.9037101455e-03    1.0072246094e+05
    5.9242248535e-03    1.0072655469e+05
    5.9447535314e-03    1.0073047656e+05
    5.9641525149e-03    1.0073567969e+05
    5.9830932878e-03    1.0073985156e+05
    6.0020405799e-03    1.0074428906e+05
    6.0210367665e-03    1.0074909375e+05
    6.0400799848e-03    1.0076324219e+05
    6.0591096990e-03    1.0076844531e+05
    6.0781282373e-03    1.0077365625e+05
    6.0972142965e-03    1.0077766406e+05
    6.1162756756e-03    1.0078338281e+05
    6.1353649944e-03    1.0078910156e+05
    6.1544459313e-03    1.0080360156e+05
    6.1734300107e-03    1.0080934375e+05
    6.1924448237e-03    1.0081458594e+05
    6.2115197070e-03    1.0082499219e+05
    6.2306127511e-03    1.0083496875e+05
    6.2497169711e-03    1.0084211719e+05
    6.2688281760e-03    1.0085253125e+05
    6.2879407778e-03    1.0086335156e+05
    6.3070552424e-03    1.0087552344e+05
    6.3261794858e-03    1.0088889844e+05
    6.3453060575e-03    1.0090759375e+05
    6.3644465990e-03    1.0092562500e+05
    6.3835908659e-03    1.0093875000e+05
    6.4027444459e-03    1.0095858594e+05
    6.4219115302e-03    1.0097992969e+05
    6.4410855994e-03    1.0100378906e+05
    6.4602680504e-03    1.0102650781e+05
    6.4794607460e-03    1.0104071094e+05
    6.4986641519e-03    1.0105441406e+05
    6.5178787336e-03    1.0105821094e+05
    6.5371058881e-03    1.0105967969e+05
    6.5563363023e-03    1.0106135156e+05
    6.5755699761e-03    1.0106216406e+05
    6.5948092379e-03    1.0107200781e+05
    6.6140629351e-03    1.0107085156e+05
    6.6333152354e-03    1.0107055469e+05
    6.6525745206e-03    1.0106821094e+05
    6.6718445159e-03    1.0106619531e+05
    6.6911154427e-03    1.0107096094e+05
    6.7104012705e-03    1.0107531250e+05
    6.7296870984e-03    1.0108009375e+05
    6.7489854991e-03    1.0108983594e+05
    6.7682852969e-03    1.0111150000e+05
    6.7875892855e-03    1.0116228125e+05
    6.8069072440e-03    1.0126678125e+05
    6.8262196146e-03    1.0148306250e+05
    6.8455408327e-03    1.0193242969e+05
    6.8648783490e-03    1.0282808594e+05
    6.8842126057e-03    1.0454367969e+05
    6.9035501219e-03    1.0764264844e+05
    6.9228983484e-03    1.1274507031e+05
    6.9422605447e-03    1.2027517969e+05
    6.9616222754e-03    1.3008905469e+05
    6.9809844717e-03    1.4114543750e+05
    7.0003494620e-03    1.5177320312e+05
    7.0197195746e-03    1.6028065625e+05
    7.0390999317e-03    1.6569995312e+05
    7.0584909990e-03    1.6805475000e+05
    7.0778946392e-03    1.6806692188e+05
    7.0973108523e-03    1.6671348438e+05
    7.1167377755e-03    1.6484523438e+05
    7.1361698210e-03    1.6311454688e+05
    7.1556069888e-03    1.6169385938e+05
    7.1750483476e-03    1.6050915625e+05
    7.1944966912e-03    1.5939840625e+05
    7.2139529511e-03    1.5817420312e+05
    7.2334166616e-03    1.5672910938e+05
    7.2528840974e-03    1.5505589062e+05
    7.2723543271e-03    1.5321929688e+05
    7.2918278165e-03    1.5131429688e+05
    7.3113050312e-03    1.4945187500e+05
    7.3307845742e-03    1.4768901562e+05
    7.3502692394e-03    1.4604664062e+05
    7.3697618209e-03    1.4453421875e+05
    7.3892641813e-03    1.4310214062e+05
    7.4087800458e-03    1.4172304688e+05
    7.4282912537e-03    1.4038262500e+05
    7.4477996677e-03    1.3907104688e+05
    7.4673094787e-03    1.3780881250e+05
    7.4868267402e-03    1.3659567188e+05
    7.5063589029e-03    1.3545120312e+05
    7.5258887373e-03    1.3439251562e+05
    7.5454111211e-03    1.3341629688e+05
    7.5649353676e-03    1.3250896875e+05
    7.5844703242e-03    1.3167021875e+05
    7.6040057465e-03    1.3088671875e+05
    7.6235276647e-03    1.3015225781e+05
    7.6430505142e-03    1.2945284375e+05
    7.6625877991e-03    1.2879546094e+05
    7.6821087860e-03    1.2817560156e+05
    7.7016241848e-03    1.2758240625e+05
    7.7211544849e-03    1.2701303125e+05
    7.7406810597e-03    1.2647855469e+05
    7.7602043748e-03    1.2596128125e+05
    7.7797495760e-03    1.2547189844e+05
    7.7992938459e-03    1.2498809375e+05
    7.8188432381e-03    1.2452294531e+05
    7.8384252265e-03    1.2405993750e+05
    7.8580006957e-03    1.2360416406e+05
    7.8775910661e-03    1.2315002344e+05
    7.8972103074e-03    1.2270118750e+05
    7.9168286175e-03    1.2226400000e+05
    7.9364804551e-03    1.2183403125e+05
    7.9561360180e-03    1.2142310156e+05
    7.9758102074e-03    1.2102978906e+05
    7.9955114052e-03    1.2065085156e+05
    8.0152126029e-03    1.2028350781e+05
    8.0349491909e-03    1.1993106250e+05
    8.0546662211e-03    1.1959412500e+05
    8.0743944272e-03    1.1927087500e+05
    8.0941170454e-03    1.1895363281e+05
    8.1138620153e-03    1.1865416406e+05
    8.1336386502e-03    1.1836936719e+05
    8.1534720957e-03    1.1809583594e+05
    8.1733558327e-03    1.1783735156e+05
    8.1932730973e-03    1.1759452344e+05
    8.2132071257e-03    1.1736914844e+05
    8.2330890000e-03    1.1715815625e+05
    8.2529615611e-03    1.1696310156e+05
    8.2727763802e-03    1.1678386719e+05
    8.2926023751e-03    1.1661277344e+05
    8.3124246448e-03    1.1645378906e+05
    8.3322748542e-03    1.1629839844e+05
    8.3521194756e-03    1.1614318750e+05
    8.3719678223e-03    1.1599930469e+05
    8.3917891607e-03    1.1586047656e+05
    8.4116021171e-03    1.1573041406e+05
    8.4314141423e-03    1.1560535156e+05
    8.4512168542e-03    1.1548662500e+05
    8.4710381925e-03    1.1537486719e+05
    8.4908353165e-03    1.1526452344e+05
    8.5106678307e-03    1.1516422656e+05
    8.5304882377e-03    1.1507297656e+05
    8.5503393784e-03    1.1498364844e+05
    8.5699046031e-03    1.1489331250e+05
    8.5892248899e-03    1.1480078125e+05
    8.6083402857e-03    1.1471246875e+05
    8.6272666231e-03    1.1461733594e+05
    8.6460309103e-03    1.1451814844e+05
    8.6646731943e-03    1.1442110156e+05
    8.6832325906e-03    1.1432114844e+05
    8.7017398328e-03    1.1421653906e+05
    8.7202098221e-03    1.1410853906e+05
    8.7386453524e-03    1.1399377344e+05
    8.7570473552e-03    1.1387297656e+05
    8.7753897533e-03    1.1374765625e+05
    8.7936492637e-03    1.1362078125e+05
    8.8118780404e-03    1.1349116406e+05
    8.8300397620e-03    1.1335559375e+05
    8.8481390849e-03    1.1322657031e+05
    8.8662039489e-03    1.1310541406e+05
    8.8842641562e-03    1.1298684375e+05
    8.9023411274e-03    1.1287066406e+05
    8.9204348624e-03    1.1276416406e+05
    8.9385388419e-03    1.1266293750e+05
    8.9566456154e-03    1.1256627344e+05
    8.9747514576e-03    1.1247319531e+05
    8.9928600937e-03    1.1238621094e+05
    9.0109808370e-03    1.1230221875e+05
    9.0291155502e-03    1.1222959375e+05
    9.0472688898e-03    1.1216182031e+05
    9.0654399246e-03    1.1210078906e+05
    9.0836230665e-03    1.1204427344e+05
    9.1018192470e-03    1.1197765625e+05
    9.1200266033e-03    1.1191561719e+05
    9.1382460669e-03    1.1185067969e+05
    9.1564757749e-03    1.1178887500e+05
    9.1747231781e-03    1.1172083594e+05
    9.1929892078e-03    1.1165558594e+05
    9.2112747952e-03    1.1159124219e+05
    9.2295790091e-03    1.1151710156e+05
    9.2479009181e-03    1.1143653125e+05
    9.2662386596e-03    1.1134914844e+05
    9.2845931649e-03    1.1125160156e+05
    9.3029672280e-03    1.1115514844e+05
    9.3213599175e-03    1.1105416406e+05
    9.3397712335e-03    1.1096428906e+05
    9.3582011759e-03    1.1087328125e+05
    9.3766497448e-03    1.1078867969e+05
    9.3951150775e-03    1.1072100781e+05
    9.4135999680e-03    1.1064583594e+05
    9.4321016222e-03    1.1058258594e+05
    9.4506228343e-03    1.1052624219e+05
    9.4691645354e-03    1.1047769531e+05
    9.4877239317e-03    1.1043547656e+05
    9.5063010231e-03    1.1040378906e+05
    9.5248948783e-03    1.1038096094e+05
    9.5435054973e-03    1.1035178906e+05
    9.5621328801e-03    1.1031964844e+05
    9.5807760954e-03    1.1028310156e+05
    9.5994332805e-03    1.1023466406e+05
    9.6181081608e-03    1.1018247656e+05
    9.6367979422e-03    1.1012314844e+05
    9.6555035561e-03    1.1006189844e+05
    9.6742231399e-03    1.0999950781e+05
    9.6929576248e-03    1.0993483594e+05
    9.7117051482e-03    1.0986728906e+05
    9.7304685041e-03    1.0980296094e+05
    9.7492448986e-03    1.0974146094e+05
    9.7680361941e-03    1.0968450781e+05
    9.7868405282e-03    1.0963516406e+05
    9.8056588322e-03    1.0959311719e+05
    9.8244920373e-03    1.0955172656e+05
    9.8433364183e-03    1.0951184375e+05
    9.8621929064e-03    1.0947008594e+05
    9.8810633644e-03    1.0943371094e+05
    9.8999459296e-03    1.0939802344e+05
    9.9188406020e-03    1.0936291406e+05
    9.9377483130e-03    1.0933090625e+05
    9.9566690624e-03    1.0929289844e+05
    9.9756028503e-03    1.0924743750e+05
    9.9945487455e-03    1.0920332031e+05
    1.0013507679e-02    1.0914860156e+05
    1.0032479651e-02    1.0909791406e+05
    1.0051463731e-02    1.0904591406e+05
    1.0070459917e-02    1.0899082031e+05
    1.0089469142e-02    1.0893469531e+05
    1.0108492337e-02    1.0887608594e+05
    1.0127528571e-02    1.0881216406e+05
    1.0146577843e-02    1.0874664844e+05
    1.0165639222e-02    1.0868053125e+05
    1.0184712708e-02    1.0862118750e+05
    1.0203798302e-02    1.0855660156e+05
    1.0222896002e-02    1.0848946875e+05
    1.0242006741e-02    1.0842332031e+05
    1.0261129588e-02    1.0835538281e+05
    1.0280264542e-02    1.0828907031e+05
    1.0299413465e-02    1.0821878125e+05
    1.0318575427e-02    1.0815875781e+05
    1.0337748565e-02    1.0809244531e+05
    1.0356934741e-02    1.0802675000e+05
    1.0376133956e-02    1.0796552344e+05
    1.0395346209e-02    1.0790203125e+05
    1.0414571501e-02    1.0783342969e+05
    1.0433809832e-02    1.0776085156e+05
    1.0453061201e-02    1.0768746094e+05
    1.0472324677e-02    1.0762352344e+05
    1.0491601191e-02    1.0754847656e+05
    1.0510892607e-02    1.0747542969e+05
    1.0530196130e-02    1.0740718750e+05
    1.0549513623e-02    1.0732971094e+05
    1.0568842292e-02    1.0726032031e+05
    1.0588183999e-02    1.0718689844e+05
    1.0607538745e-02    1.0712114844e+05
    1.0626907460e-02    1.0705628125e+05
    1.0646289214e-02    1.0699783594e+05
    1.0665684007e-02    1.0693596094e+05
    1.0685092770e-02    1.0687315625e+05
    1.0704516433e-02    1.0680852344e+05
    1.0723951273e-02    1.0674640625e+05
    1.0743400082e-02    1.0668212500e+05
    1.0762862861e-02    1.0662407031e+05
    1.0782338679e-02    1.0656981250e+05
    1.0801829398e-02    1.0651164844e+05
    1.0821334086e-02    1.0645906250e+05
    1.0840852745e-02    1.0640225000e+05
    1.0860386305e-02    1.0635230469e+05
    1.0879932903e-02    1.0629858594e+05
    1.0899493471e-02    1.0624372656e+05
    1.0919069871e-02    1.0620008594e+05
    1.0938662104e-02    1.0614728906e+05
    1.0958270170e-02    1.0609403906e+05
    1.0977892205e-02    1.0604012500e+05
    1.0997531936e-02    1.0598406250e+05
    1.1017187499e-02    1.0592399219e+05
    1.1036860757e-02    1.0585942969e+05
    1.1056551710e-02    1.0579122656e+05
    1.1076259427e-02    1.0571721875e+05
    1.1095987633e-02    1.0564352344e+05
    1.1115733534e-02    1.0556021094e+05
    1.1135498993e-02    1.0546896875e+05
    1.1155283079e-02    1.0538480469e+05
    1.1175086722e-02    1.0529346094e+05
    1.1194912717e-02    1.0519582031e+05
    1.1214758269e-02    1.0509457031e+05
    1.1234625243e-02    1.0499767969e+05
    1.1254511774e-02    1.0489383594e+05
    1.1274418794e-02    1.0479840625e+05
    1.1294347234e-02    1.0470646094e+05
    1.1314296164e-02    1.0462422656e+05
    1.1334266514e-02    1.0455985156e+05
    1.1354257353e-02    1.0450813281e+05
    1.1374268681e-02    1.0446722656e+05
    1.1394302361e-02    1.0443630469e+05
    1.1414355598e-02    1.0441227344e+05
    1.1434430256e-02    1.0439900781e+05
    1.1454525404e-02    1.0438646875e+05
    1.1474640109e-02    1.0438403906e+05
    1.1494777165e-02    1.0437243750e+05
    1.1514934711e-02    1.0435472656e+05
    1.1535113677e-02    1.0433597656e+05
    1.1555313133e-02    1.0430950781e+05
    1.1575534008e-02    1.0427914844e+05
    1.1595774442e-02    1.0424425000e+05
    1.1616035365e-02    1.0420881250e+05
    1.1636316776e-02    1.0417196875e+05
    1.1656619608e-02    1.0413747656e+05
    1.1676942930e-02    1.0410932031e+05
    1.1697287671e-02    1.0407477344e+05
    1.1717652902e-02    1.0403750781e+05
    1.1738038622e-02    1.0399283594e+05
    1.1758443899e-02    1.0394922656e+05
    1.1778870597e-02    1.0389071094e+05
    1.1799318716e-02    1.0383377344e+05
    1.1819788255e-02    1.0376616406e+05
    1.1840280145e-02    1.0368327344e+05
    1.1860790662e-02    1.0358997656e+05
    1.1881321669e-02    1.0348916406e+05
    1.1901874095e-02    1.0338485156e+05
    1.1922447011e-02    1.0328835156e+05
    1.1943042278e-02    1.0319028125e+05
    1.1963658035e-02    1.0310039844e+05
    1.1984295212e-02    1.0301144531e+05
    1.2004952878e-02    1.0291771875e+05
    1.2025631964e-02    1.0283474219e+05
    1.2046331540e-02    1.0274862500e+05
    1.2067052536e-02    1.0266417969e+05
    1.2087795883e-02    1.0258753906e+05
    1.2108558789e-02    1.0251255469e+05
    1.2129344046e-02    1.0244903906e+05
    1.2150149792e-02    1.0239078125e+05
    1.2170976959e-02    1.0234414844e+05
    1.2191825546e-02    1.0231383594e+05
    1.2212695554e-02    1.0228985156e+05
    1.2233586982e-02    1.0227978906e+05
    1.2254500762e-02    1.0227755469e+05
    1.2275436893e-02    1.0228102344e+05
    1.2296394445e-02    1.0229244531e+05
    1.2317374349e-02    1.0231452344e+05
    1.2338375673e-02    1.0234028906e+05
    1.2359398417e-02    1.0236718750e+05
    1.2380442582e-02    1.0240355469e+05
    1.2401508167e-02    1.0245264844e+05
    1.2422595173e-02    1.0251393750e+05
    1.2443703599e-02    1.0259605469e+05
    1.2464834377e-02    1.0271197656e+05
    1.2485986575e-02    1.0288042969e+05
    1.2507158332e-02    1.0311039844e+05
    1.2528351508e-02    1.0342268750e+05
    1.2549565174e-02    1.0384107031e+05
    1.2570801191e-02    1.0439046094e+05
    1.2592058629e-02    1.0508058594e+05
    1.2613337487e-02    1.0591233594e+05
    1.2634636834e-02    1.0688841406e+05
    1.2655957602e-02    1.0797960156e+05
    1.2677297927e-02    1.0914133594e+05
    1.2698660605e-02    1.1031041406e+05
    1.2720043771e-02    1.1139517969e+05
    1.2741449289e-02    1.1231614844e+05
    1.2762876227e-02    1.1300174219e+05
    1.2784325518e-02    1.1341131250e+05
    1.2805794366e-02    1.1353841406e+05
    1.2827285565e-02    1.1338400000e+05
    1.2848797254e-02    1.1298936719e+05
    1.2870330364e-02    1.1240185156e+05
    1.2891885825e-02    1.1167383594e+05
    1.2913462706e-02    1.1086821094e+05
    1.2935061008e-02    1.1004197656e+05
    1.2956679799e-02    1.0924953906e+05
    1.2978320010e-02    1.0852603125e+05
    1.2999981642e-02    1.0790640625e+05
    1.3021663763e-02    1.0739543750e+05
    1.3043368235e-02    1.0697042969e+05
    1.3065092266e-02    1.0660741406e+05
    1.3086837716e-02    1.0625347656e+05
    1.3108605519e-02    1.0588310156e+05
    1.3130392879e-02    1.0546853906e+05
    1.3152201660e-02    1.0500784375e+05
    1.3174032792e-02    1.0449288281e+05
    1.3195885345e-02    1.0394350000e+05
    1.3217759319e-02    1.0337853125e+05
    1.3239653781e-02    1.0281740625e+05
    1.3261569664e-02    1.0229235156e+05
    1.3283506967e-02    1.0182399219e+05
    1.3305463828e-02    1.0142753906e+05
    1.3327440247e-02    1.0111225781e+05
    1.3349435292e-02    1.0086546875e+05
    1.3371448033e-02    1.0068831250e+05
    1.3393475674e-02    1.0057228906e+05
    1.3415516354e-02    1.0049602344e+05
    1.3437564485e-02    1.0046500781e+05
    1.3459613547e-02    1.0045696094e+05
    1.3481658883e-02    1.0046410156e+05
    1.3503690250e-02    1.0048160156e+05
    1.3525702059e-02    1.0050672656e+05
    1.3547683135e-02    1.0053841406e+05
    1.3569628820e-02    1.0057864844e+05
    1.3591531664e-02    1.0062753906e+05
    1.3613392599e-02    1.0068733594e+05
    1.3635210693e-02    1.0075410156e+05
    1.3656994328e-02    1.0081499219e+05
    1.3678749092e-02    1.0087399219e+05
    1.3700488023e-02    1.0092678125e+05
    1.3722228818e-02    1.0097396094e+05
    1.3743981719e-02    1.0100394531e+05
    1.3765762560e-02    1.0102575781e+05
    1.3787578791e-02    1.0102859375e+05
    1.3809437864e-02    1.0102435156e+05
    1.3831341639e-02    1.0101278906e+05
    1.3853288256e-02    1.0100197656e+05
    1.3875273056e-02    1.0099888281e+05
    1.3897285797e-02    1.0100522656e+05
    1.3919321820e-02    1.0102489844e+05
    1.3941374607e-02    1.0106072656e+05
    1.3963440433e-02    1.0111084375e+05
    1.3985517435e-02    1.0116322656e+05
    1.4007603750e-02    1.0121677344e+05
    1.4029704034e-02    1.0126328906e+05
    1.4051820152e-02    1.0129806250e+05
    1.4073957689e-02    1.0131178906e+05
    1.4096121304e-02    1.0130877344e+05
    1.4118315652e-02    1.0128789844e+05
    1.4140545391e-02    1.0126712500e+05
    1.4162814245e-02    1.0123839844e+05
    1.4185124077e-02    1.0121881250e+05
    1.4207473956e-02    1.0121450000e+05
    1.4229862019e-02    1.0122718750e+05
    1.4252286404e-02    1.0124671875e+05
    1.4274741523e-02    1.0128927344e+05
    1.4297228307e-02    1.0133528125e+05
    1.4319745824e-02    1.0138071094e+05
    1.4342290349e-02    1.0142261719e+05
    1.4364863746e-02    1.0145064844e+05
    1.4387467876e-02    1.0146858594e+05
    1.4410103671e-02    1.0148097656e+05
    1.4432771131e-02    1.0149028906e+05
    1.4455472119e-02    1.0149716406e+05
    1.4478209428e-02    1.0149184375e+05
    1.4500979334e-02    1.0148388281e+05
    1.4523783699e-02    1.0147878906e+05
    1.4546621591e-02    1.0147416406e+05
    1.4569494873e-02    1.0147239844e+05
    1.4592399821e-02    1.0147278125e+05
    1.4615339227e-02    1.0147935156e+05
    1.4638305642e-02    1.0148125000e+05
    1.4661304653e-02    1.0148164844e+05
    1.4684336260e-02    1.0147919531e+05
    1.4707398601e-02    1.0148002344e+05
    1.4730494469e-02    1.0147153906e+05
    1.4753622934e-02    1.0146438281e+05
    1.4776783995e-02    1.0145253906e+05
    1.4799979515e-02    1.0144364844e+05
    1.4823205769e-02    1.0142872656e+05
    1.4846466482e-02    1.0141005469e+05
    1.4869757928e-02    1.0138553125e+05
    1.4893081971e-02    1.0135615625e+05
    1.4916437678e-02    1.0132999219e+05
    1.4939822257e-02    1.0129653906e+05
    1.4963239431e-02    1.0125839844e+05
    1.4986685477e-02    1.0121022656e+05
    1.5010161325e-02    1.0115127344e+05
    1.5033668838e-02    1.0108221875e+05
    1.5057205223e-02    1.0101182031e+05
    1.5080772340e-02    1.0093957031e+05
    1.5104367398e-02    1.0086471875e+05
    1.5127992257e-02    1.0078908594e+05
    1.5151646920e-02    1.0071042969e+05
    1.5175330453e-02    1.0063125000e+05
    1.5199041925e-02    1.0055728906e+05
    1.5222782269e-02    1.0049049219e+05
    1.5246548690e-02    1.0041805469e+05
    1.5270343982e-02    1.0034449219e+05
    1.5294168144e-02    1.0027746094e+05
    1.5318016522e-02    1.0020994531e+05
    1.5341891907e-02    1.0014346875e+05
    1.5365792438e-02    1.0009021094e+05
    1.5389721841e-02    1.0004049219e+05
    1.5413676389e-02    9.9996539062e+04
    1.5437657945e-02    9.9961851562e+04
    1.5461664647e-02    9.9934226562e+04
    1.5485695563e-02    9.9923039062e+04
    1.5509752557e-02    9.9922632812e+04
    1.5533835627e-02    9.9925570312e+04
    1.5557944775e-02    9.9941695312e+04
    1.5582079068e-02    9.9952164062e+04
    1.5606240369e-02    9.9976773438e+04
    1.5630424023e-02    9.9993960938e+04
    1.5654634684e-02    1.0001416406e+05
    1.5678871423e-02    1.0003533594e+05
    1.5703132376e-02    1.0005233594e+05
    1.5727419406e-02    1.0006990625e+05
    1.5751728788e-02    1.0008337500e+05
    1.5776060522e-02    1.0009102344e+05
    1.5800418332e-02    1.0008296094e+05
    1.5824800357e-02    1.0008408594e+05
    1.5849204734e-02    1.0008217969e+05
    1.5873633325e-02    1.0007971875e+05
    1.5898084268e-02    1.0007386719e+05
    1.5922557563e-02    1.0006918750e+05
    1.5947058797e-02    1.0006432031e+05
    1.5971582383e-02    1.0005297656e+05
    1.5996130183e-02    1.0004071875e+05
    1.6020702198e-02    1.0002988281e+05
    1.6045298427e-02    1.0001021094e+05
    1.6069920734e-02    9.9999742188e+04
    1.6094569117e-02    9.9988726562e+04
    1.6119243577e-02    9.9972523438e+04
    1.6143942252e-02    9.9955820312e+04
    1.6168667004e-02    9.9945781250e+04
    1.6193419695e-02    9.9932523438e+04
    1.6218200326e-02    9.9924062500e+04
    1.6243007034e-02    9.9920062500e+04
    1.6267839819e-02    9.9915585938e+04
    1.6292702407e-02    9.9915757812e+04
    1.6317596659e-02    9.9910976562e+04
    1.6342513263e-02    9.9908023438e+04
    1.6367461532e-02    9.9908773438e+04
    1.6392435879e-02    9.9902710938e+04
    1.6417443752e-02    9.9901710938e+04
    1.6442479566e-02    9.9905054688e+04
    1.6467543319e-02    9.9915132812e+04
    1.6492636874e-02    9.9923875000e+04
    1.6517756507e-02    9.9938164062e+04
    1.6542907804e-02    9.9956273438e+04
    1.6568088904e-02    9.9982039062e+04
    1.6593271866e-02    9.9999218750e+04
    1.6618426889e-02    1.0002883594e+05
    1.6643559560e-02    1.0005746094e+05
    1.6668669879e-02    1.0009402344e+05
    1.6693757847e-02    1.0013340625e+05
    1.6718825325e-02    1.0017775000e+05
    1.6743874177e-02    1.0022383594e+05
    1.6768900678e-02    1.0026797656e+05
    1.6793908551e-02    1.0031975000e+05
    1.6818899661e-02    1.0037768750e+05
    1.6843874007e-02    1.0043846094e+05
    1.6868829727e-02    1.0049303906e+05
    1.6893770546e-02    1.0055384375e+05
    1.6918692738e-02    1.0061174219e+05
    1.6943598166e-02    1.0066675781e+05
    1.6968490556e-02    1.0072274219e+05
    1.6993366182e-02    1.0077410156e+05
    1.7018226907e-02    1.0082293750e+05
    1.7043072730e-02    1.0086449219e+05
    1.7067901790e-02    1.0089889844e+05
    1.7092714086e-02    1.0093440625e+05
    1.7117511481e-02    1.0096617969e+05
    1.7142292112e-02    1.0099803906e+05
    1.7167057842e-02    1.0102602344e+05
    1.7191808671e-02    1.0105205469e+05
    1.7216544598e-02    1.0108066406e+05
    1.7241263762e-02    1.0111397656e+05
    1.7265968025e-02    1.0114778906e+05
    1.7290659249e-02    1.0118331250e+05
    1.7315333709e-02    1.0121842969e+05
    1.7339993268e-02    1.0125288281e+05
    1.7364639789e-02    1.0129502344e+05
    1.7389267683e-02    1.0133410156e+05
    1.7413880676e-02    1.0137966406e+05
    1.7438478768e-02    1.0141684375e+05
    1.7463061959e-02    1.0146383594e+05
    1.7487626523e-02    1.0150246094e+05
    1.7512176186e-02    1.0153871094e+05
    1.7536709085e-02    1.0156966406e+05
    1.7561223358e-02    1.0159921094e+05
    1.7585720867e-02    1.0161834375e+05
    1.7610201612e-02    1.0163981250e+05
    1.7634663731e-02    1.0165816406e+05
    1.7659107223e-02    1.0166952344e+05
    1.7683532089e-02    1.0167588281e+05
    1.7707940191e-02    1.0169041406e+05
    1.7732329667e-02    1.0169994531e+05
    1.7756698653e-02    1.0171335156e+05
    1.7781050876e-02    1.0172083594e+05
    1.7805384472e-02    1.0172671094e+05
    1.7829699442e-02    1.0174414844e+05
    1.7853999510e-02    1.0175231250e+05
    1.7878280953e-02    1.0176308594e+05
    1.7902545631e-02    1.0176835156e+05
    1.7926793545e-02    1.0177747656e+05
    1.7951028422e-02    1.0178432031e+05
    1.7975246534e-02    1.0178783594e+05
    1.7999447882e-02    1.0179900781e+05
    1.8023636192e-02    1.0180614844e+05
    1.8047811463e-02    1.0181594531e+05
    1.8071975559e-02    1.0182871094e+05
    1.8096126616e-02    1.0184691406e+05
    1.8120266497e-02    1.0186510156e+05
    1.8144397065e-02    1.0189052344e+05
    1.8168520182e-02    1.0192896094e+05
    1.8192630261e-02    1.0196218750e+05
    1.8216732889e-02    1.0200321875e+05
    1.8240824342e-02    1.0205462500e+05
    1.8264908344e-02    1.0210460156e+05
    1.8288983032e-02    1.0216557031e+05
    1.8313048407e-02    1.0224113281e+05
    1.8337102607e-02    1.0232675781e+05
    1.8361147493e-02    1.0242537500e+05
    1.8385183066e-02    1.0253056250e+05
    1.8409207463e-02    1.0264549219e+05
    1.8433224410e-02    1.0277117969e+05
    1.8457230181e-02    1.0290475000e+05
    1.8481226638e-02    1.0304130469e+05
    1.8505210057e-02    1.0318450781e+05
    1.8529184163e-02    1.0332688281e+05
    1.8553148955e-02    1.0345900781e+05
    1.8577100709e-02    1.0356371094e+05
    1.8601041287e-02    1.0365890625e+05
    1.8624972552e-02    1.0372188281e+05
    1.8648892641e-02    1.0374902344e+05
    1.8672801554e-02    1.0374522656e+05
    1.8696699291e-02    1.0371441406e+05
    1.8720587716e-02    1.0363696094e+05
    1.8744463101e-02    1.0352521094e+05
    1.8768329173e-02    1.0337957031e+05
    1.8792184070e-02    1.0319159375e+05
    1.8816027790e-02    1.0297749219e+05
    1.8839860335e-02    1.0272891406e+05
    1.8863683566e-02    1.0245743750e+05
    1.8887493759e-02    1.0218528906e+05
    1.8911294639e-02    1.0191758594e+05
    1.8935086206e-02    1.0167227344e+05
    1.8958866596e-02    1.0145018750e+05
    1.8982635811e-02    1.0125814844e+05
    1.9006397575e-02    1.0110227344e+05
    1.9030146301e-02    1.0097517969e+05
    1.9053885713e-02    1.0087832031e+05
    1.9077615812e-02    1.0080844531e+05
    1.9101334736e-02    1.0076878906e+05
    1.9125042483e-02    1.0074121875e+05
    1.9148740917e-02    1.0073192969e+05
    1.9172428176e-02    1.0073610156e+05
    1.9196104258e-02    1.0074875781e+05
    1.9219771028e-02    1.0077367969e+05
    1.9243424758e-02    1.0080321094e+05
    1.9267069176e-02    1.0083902344e+05
    1.9290700555e-02    1.0088607031e+05
    1.9314322621e-02    1.0092977344e+05
    1.9337931648e-02    1.0097564844e+05
    1.9361529499e-02    1.0102253906e+05
    1.9385114312e-02    1.0107246094e+05
    1.9408687949e-02    1.0112146094e+05
    1.9432250410e-02    1.0117205469e+05
    1.9455801696e-02    1.0121850000e+05
    1.9479339942e-02    1.0126513281e+05
    1.9502865151e-02    1.0130691406e+05
    1.9526379183e-02    1.0134672656e+05
    1.9549878314e-02    1.0138358594e+05
    1.9573366269e-02    1.0142421094e+05
    1.9596841186e-02    1.0146506250e+05
    1.9620303065e-02    1.0150889844e+05
    1.9643751904e-02    1.0156063281e+05
    1.9667187706e-02    1.0161710156e+05
    1.9690606743e-02    1.0167616406e+05
    1.9714014605e-02    1.0173765625e+05
    1.9737409428e-02    1.0180341406e+05
    1.9760791212e-02    1.0186919531e+05
    1.9784159958e-02    1.0193221094e+05
    1.9807513803e-02    1.0199783594e+05
    1.9830854610e-02    1.0205032031e+05
    1.9854182377e-02    1.0210596094e+05
    1.9877497107e-02    1.0214947656e+05
    1.9900798798e-02    1.0219011719e+05
    1.9924087450e-02    1.0223892969e+05
    1.9947361201e-02    1.0227657031e+05
    1.9970623776e-02    1.0230650781e+05
    1.9993871450e-02    1.0233975000e+05
    2.0017107949e-02    1.0237327344e+05
    2.0040329546e-02    1.0240564844e+05
    2.0063538104e-02    1.0242678906e+05
    2.0086731762e-02    1.0244734375e+05
    2.0109914243e-02    1.0246328125e+05
    2.0133081824e-02    1.0247241406e+05
    2.0156236365e-02    1.0247728906e+05
    2.0179376006e-02    1.0248347656e+05
    2.0202504471e-02    1.0248341406e+05
    2.0225618035e-02    1.0247742969e+05
    2.0248720422e-02    1.0247366406e+05
    2.0271807909e-02    1.0246016406e+05
    2.0294882357e-02    1.0244871094e+05
    2.0317947492e-02    1.0243903906e+05
    2.0340997726e-02    1.0243152344e+05
    2.0364036784e-02    1.0241486719e+05
    2.0387060940e-02    1.0240075781e+05
    2.0410073921e-02    1.0238235156e+05
    2.0433073863e-02    1.0237150781e+05
    2.0456060767e-02    1.0235374219e+05
    2.0479036495e-02    1.0234035156e+05
    2.0501999184e-02    1.0232446094e+05
    2.0524948835e-02    1.0230724219e+05
    2.0547885448e-02    1.0228280469e+05
    2.0570809022e-02    1.0226244531e+05
    2.0593719557e-02    1.0224338281e+05
    2.0616617054e-02    1.0222246094e+05
    2.0639499649e-02    1.0219864844e+05
    2.0662369207e-02    1.0216993750e+05
    2.0685223863e-02    1.0214472656e+05
    2.0708063617e-02    1.0211700781e+05
    2.0730890334e-02    1.0209569531e+05
    2.0753700286e-02    1.0207485156e+05
    2.0776495337e-02    1.0205821094e+05
    2.0799275488e-02    1.0203578125e+05
    2.0822042599e-02    1.0201721094e+05
    2.0844791085e-02    1.0199996094e+05
    2.0867524669e-02    1.0197650781e+05
    2.0890241489e-02    1.0195890625e+05
    2.0912945271e-02    1.0194558594e+05
    2.0935632288e-02    1.0193014844e+05
    2.0958306268e-02    1.0192053125e+05
    2.0980965346e-02    1.0191234375e+05
    2.1003607661e-02    1.0190560156e+05
    2.1026238799e-02    1.0189405469e+05
    2.1048855036e-02    1.0188782031e+05
    2.1071458235e-02    1.0187643750e+05
    2.1094048396e-02    1.0187087500e+05
    2.1116625518e-02    1.0186122656e+05
    2.1139191464e-02    1.0185141406e+05
    2.1161744371e-02    1.0184677344e+05
    2.1184286103e-02    1.0183644531e+05
    2.1206818521e-02    1.0182057031e+05
    2.1229337901e-02    1.0180953125e+05
    2.1251846105e-02    1.0179707031e+05
    2.1274344996e-02    1.0177944531e+05
    2.1296832711e-02    1.0176488281e+05
    2.1319312975e-02    1.0175289844e+05
    2.1341778338e-02    1.0173183594e+05
    2.1364232525e-02    1.0171360156e+05
    2.1386675537e-02    1.0169634375e+05
    2.1409107372e-02    1.0167934375e+05
    2.1431528032e-02    1.0166068750e+05
    2.1453931928e-02    1.0163722656e+05
    2.1476324648e-02    1.0161785156e+05
    2.1498700604e-02    1.0159807031e+05
    2.1521063522e-02    1.0157455469e+05
    2.1543409675e-02    1.0155799219e+05
    2.1565740928e-02    1.0154046094e+05
    2.1588053554e-02    1.0152367969e+05
    2.1610351279e-02    1.0151181250e+05
    2.1632634103e-02    1.0150033594e+05
    2.1654898301e-02    1.0149542969e+05
    2.1677147597e-02    1.0149635156e+05
    2.1699378267e-02    1.0149506250e+05
    2.1721594036e-02    1.0149964844e+05
    2.1743793041e-02    1.0150364844e+05
    2.1765975282e-02    1.0151609375e+05
    2.1788140759e-02    1.0153097656e+05
    2.1810289472e-02    1.0155200781e+05
    2.1832419559e-02    1.0157072656e+05
    2.1854531020e-02    1.0159041406e+05
    2.1876627579e-02    1.0161205469e+05
    2.1898705512e-02    1.0164153906e+05
    2.1920768544e-02    1.0166624219e+05
    2.1942811087e-02    1.0169162500e+05
    2.1964838728e-02    1.0171396875e+05
    2.1986849606e-02    1.0174065625e+05
    2.2008845583e-02    1.0175766406e+05
    2.2030822933e-02    1.0177264844e+05
    2.2052785382e-02    1.0179192969e+05
    2.2074732929e-02    1.0180649219e+05
    2.2096665576e-02    1.0181558594e+05
    2.2118583322e-02    1.0182691406e+05
    2.2140489891e-02    1.0182844531e+05
    2.2162377834e-02    1.0183810156e+05
    2.2184254602e-02    1.0184653906e+05
    2.2206118330e-02    1.0184514844e+05
    2.2227969021e-02    1.0185277344e+05
    2.2249806672e-02    1.0185039844e+05
    2.2271629423e-02    1.0185652344e+05
    2.2293440998e-02    1.0186225781e+05
    2.2315241396e-02    1.0186652344e+05
    2.2337028757e-02    1.0187050000e+05
    2.2358803079e-02    1.0187075000e+05
    2.2380566224e-02    1.0187035156e+05
    2.2402318195e-02    1.0187441406e+05
    2.2424057126e-02    1.0187702344e+05
    2.2445784882e-02    1.0188511719e+05
    2.2467501462e-02    1.0189044531e+05
    2.2489206865e-02    1.0188797656e+05
    2.2510899231e-02    1.0188702344e+05
    2.2532582283e-02    1.0188659375e+05
    2.2554252297e-02    1.0187722656e+05
    2.2575911134e-02    1.0187560156e+05
    2.2597560659e-02    1.0187434375e+05
    2.2619199008e-02    1.0186192969e+05
    2.2640828043e-02    1.0185666406e+05
    2.2662445903e-02    1.0184883594e+05
    2.2684050724e-02    1.0184041406e+05
    2.2705646232e-02    1.0182589844e+05
    2.2727232426e-02    1.0181633594e+05
    2.2748809308e-02    1.0181039844e+05
    2.2770375013e-02    1.0180458594e+05
    2.2791929543e-02    1.0178964844e+05
    2.2813472897e-02    1.0178275000e+05
    2.2835006937e-02    1.0176691406e+05
    2.2856531665e-02    1.0175992969e+05
    2.2878047079e-02    1.0174865625e+05
    2.2899549454e-02    1.0173793750e+05
    2.2921044379e-02    1.0173046094e+05
    2.2942528129e-02    1.0172391406e+05
    2.2964000702e-02    1.0171661719e+05
    2.2985465825e-02    1.0170037500e+05
    2.3006917909e-02    1.0169233594e+05
    2.3028360680e-02    1.0167941406e+05
    2.3049792275e-02    1.0167032031e+05
    2.3071214557e-02    1.0165713281e+05
    2.3092625663e-02    1.0164813281e+05
    2.3114029318e-02    1.0163953125e+05
    2.3135419935e-02    1.0162381250e+05
    2.3156799376e-02    1.0161153125e+05
    2.3178169504e-02    1.0161158594e+05
    2.3199530318e-02    1.0160291406e+05
    2.3220879957e-02    1.0159691406e+05
    2.3242218420e-02    1.0159478906e+05
    2.3263547570e-02    1.0158755469e+05
    2.3284865543e-02    1.0158027344e+05
    2.3306174204e-02    1.0157314844e+05
    2.3327469826e-02    1.0156860156e+05
    2.3348756135e-02    1.0156602344e+05
    2.3370031267e-02    1.0156528906e+05
    2.3391297087e-02    1.0156921094e+05
    2.3412553594e-02    1.0156446094e+05
    2.3433798924e-02    1.0156088281e+05
    2.3455033079e-02    1.0155689844e+05
    2.3476256058e-02    1.0155252344e+05
    2.3497469723e-02    1.0155250000e+05
    2.3518672213e-02    1.0155305469e+05
    2.3539865389e-02    1.0154777344e+05
    2.3561049253e-02    1.0153278125e+05
    2.3582221940e-02    1.0152755469e+05
    2.3603385314e-02    1.0152203125e+05
    2.3624535650e-02    1.0151246875e+05
    2.3645676672e-02    1.0150271094e+05
    2.3666808382e-02    1.0150183594e+05
    2.3687927052e-02    1.0150103906e+05
    2.3709038273e-02    1.0149478125e+05
    2.3730138317e-02    1.0148853906e+05
    2.3751227185e-02    1.0148666406e+05
    2.3772306740e-02    1.0148208594e+05
    2.3793375120e-02    1.0147719531e+05
    2.3814432323e-02    1.0148236719e+05
    2.3835480213e-02    1.0147827344e+05
    2.3856516927e-02    1.0147490625e+05
    2.3877544329e-02    1.0147250000e+05
    2.3898560554e-02    1.0147030469e+05
    2.3919565603e-02    1.0147750781e+05
    2.3940561339e-02    1.0147597656e+05
    2.3961545900e-02    1.0147732031e+05
    2.3982519284e-02    1.0148541406e+05
    2.4003483355e-02    1.0148480469e+05
    2.4024436250e-02    1.0148814844e+05
    2.4045377970e-02    1.0149672656e+05
    2.4066310376e-02    1.0150015625e+05
    2.4087233469e-02    1.0150935156e+05
    2.4108145386e-02    1.0151863281e+05
    2.4129044265e-02    1.0153466406e+05
    2.4149935693e-02    1.0155203906e+05
    2.4170814082e-02    1.0157130469e+05
    2.4191683158e-02    1.0159178125e+05
    2.4212542921e-02    1.0161412500e+05
    2.4233391508e-02    1.0163721094e+05
    2.4254228920e-02    1.0166163281e+05
    2.4275057018e-02    1.0168694531e+05
    2.4295873940e-02    1.0171250781e+05
    2.4316681549e-02    1.0173987500e+05
    2.4337477982e-02    1.0176833594e+05
    2.4358265102e-02    1.0179486719e+05
    2.4379042909e-02    1.0181828906e+05
    2.4399809539e-02    1.0184797656e+05
    2.4420566857e-02    1.0186774219e+05
    2.4441312999e-02    1.0188764844e+05
    2.4462047964e-02    1.0190641406e+05
    2.4482775480e-02    1.0192427344e+05
    2.4503491819e-02    1.0194018750e+05
    2.4524198845e-02    1.0194035156e+05
    2.4544894695e-02    1.0193905469e+05
    2.4565581232e-02    1.0193521094e+05
    2.4586258456e-02    1.0192780469e+05
    2.4606924504e-02    1.0191275781e+05
    2.4627581239e-02    1.0189427344e+05
    2.4648228660e-02    1.0186875781e+05
    2.4668866768e-02    1.0183453125e+05
    2.4689495564e-02    1.0179416406e+05
    2.4710113183e-02    1.0175050781e+05
    2.4730721489e-02    1.0170502344e+05
    2.4751318619e-02    1.0166196094e+05
    2.4771906435e-02    1.0161390625e+05
    2.4792486802e-02    1.0156393750e+05
    2.4813055992e-02    1.0151250000e+05
    2.4833614007e-02    1.0146368750e+05
    2.4854162708e-02    1.0141833594e+05
    2.4874702096e-02    1.0138552344e+05
    2.4895232171e-02    1.0136140625e+05
    2.4915752932e-02    1.0134443750e+05
    2.4936262518e-02    1.0133356250e+05
    2.4956764653e-02    1.0134046094e+05
    2.4977253750e-02    1.0135241406e+05
    2.4997735396e-02    1.0136943750e+05
    2.5018205866e-02    1.0139939844e+05
    2.5038668886e-02    1.0143500781e+05
    2.5059120730e-02    1.0147096094e+05
    2.5079563260e-02    1.0151021875e+05
    2.5099996477e-02    1.0155385156e+05
    2.5120420381e-02    1.0158960156e+05
    2.5140833110e-02    1.0163283594e+05
    2.5161236525e-02    1.0166714844e+05
    2.5181630626e-02    1.0170571094e+05
    2.5202017277e-02    1.0173427344e+05
    2.5222390890e-02    1.0176628906e+05
    2.5242757052e-02    1.0178618750e+05
    2.5263112038e-02    1.0180878906e+05
    2.5283459574e-02    1.0182131250e+05
    2.5303795934e-02    1.0183822656e+05
    2.5324124843e-02    1.0184913281e+05
    2.5344440714e-02    1.0185828906e+05
    2.5364749134e-02    1.0186757031e+05
    2.5385048240e-02    1.0187496875e+05
    2.5405339897e-02    1.0188253125e+05
    2.5425618514e-02    1.0188830469e+05
    2.5445887819e-02    1.0189543750e+05
    2.5466147810e-02    1.0190153906e+05
    2.5486400351e-02    1.0190691406e+05
    2.5506639853e-02    1.0191782031e+05
    2.5526873767e-02    1.0192850000e+05
    2.5547094643e-02    1.0193764844e+05
    2.5567308068e-02    1.0194184375e+05
    2.5587510318e-02    1.0194821094e+05
    2.5607703254e-02    1.0195428906e+05
    2.5627886876e-02    1.0196103906e+05
    2.5648061186e-02    1.0197274219e+05
    2.5668226182e-02    1.0197378125e+05
    2.5688380003e-02    1.0198303125e+05
    2.5708526373e-02    1.0198260156e+05
    2.5728661567e-02    1.0198618750e+05
    2.5748789310e-02    1.0198541406e+05
    2.5768904015e-02    1.0198264844e+05
    2.5789011270e-02    1.0197891406e+05
    2.5809109211e-02    1.0197764844e+05
    2.5829195976e-02    1.0196878906e+05
    2.5849273428e-02    1.0196494531e+05
    2.5869343430e-02    1.0196068750e+05
    2.5889402255e-02    1.0195712500e+05
    2.5909451768e-02    1.0195050781e+05
    2.5929493830e-02    1.0194897656e+05
    2.5949522853e-02    1.0193757031e+05
    2.5969544426e-02    1.0192896875e+05
    2.5989556685e-02    1.0192308594e+05
    2.6009559631e-02    1.0191218750e+05
    2.6029553264e-02    1.0190550000e+05
    2.6049537584e-02    1.0190197656e+05
    2.6069512591e-02    1.0189714844e+05
    2.6089478284e-02    1.0188808594e+05
    2.6109432802e-02    1.0188383594e+05
    2.6129379869e-02    1.0188396094e+05
    2.6149315760e-02    1.0187196875e+05
    2.6169244200e-02    1.0186503906e+05
    2.6189163327e-02    1.0186156250e+05
    2.6209073141e-02    1.0185792969e+05
    2.6228975505e-02    1.0186396094e+05
    2.6248866692e-02    1.0186074219e+05
    2.6268748567e-02    1.0186249219e+05
    2.6288621128e-02    1.0186088281e+05
    2.6308484375e-02    1.0185583594e+05
    2.6328338310e-02    1.0185360156e+05
    2.6348184794e-02    1.0185080469e+05
    2.6368021965e-02    1.0185314844e+05
    2.6387847960e-02    1.0185477344e+05
    2.6407664642e-02    1.0185292969e+05
    2.6427472010e-02    1.0184708594e+05
    2.6447271928e-02    1.0184235156e+05
    2.6467062533e-02    1.0184439844e+05
    2.6486843824e-02    1.0184194531e+05
    2.6506617665e-02    1.0183947656e+05
    2.6526380330e-02    1.0183722656e+05
    2.6546133682e-02    1.0183514844e+05
    2.6565877721e-02    1.0183852344e+05
    2.6585612446e-02    1.0184147656e+05
    2.6605339721e-02    1.0184132031e+05
    2.6625057682e-02    1.0184080469e+05
    2.6644766331e-02    1.0184097656e+05
    2.6664465666e-02    1.0184008594e+05
    2.6684155688e-02    1.0184175000e+05
    2.6703836396e-02    1.0184737500e+05
    2.6723509654e-02    1.0184996875e+05
    2.6743173599e-02    1.0185505469e+05
    2.6762828231e-02    1.0185647656e+05
    2.6782475412e-02    1.0185796094e+05
    2.6802113280e-02    1.0186242969e+05
    2.6821739972e-02    1.0186214844e+05
    2.6841359213e-02    1.0186297656e+05
    2.6860967278e-02    1.0186386719e+05
    2.6880569756e-02    1.0186428906e+05
    2.6900164783e-02    1.0186487500e+05
    2.6919748634e-02    1.0186474219e+05
    2.6939325035e-02    1.0186457031e+05
    2.6958892122e-02    1.0186558594e+05
    2.6978449896e-02    1.0186599219e+05
    2.6997998357e-02    1.0187414844e+05
    2.7017539367e-02    1.0187708594e+05
    2.7037071064e-02    1.0187710156e+05
    2.7056595311e-02    1.0187133594e+05
    2.7076110244e-02    1.0186987500e+05
    2.7095617726e-02    1.0187021875e+05
    2.7115115896e-02    1.0187977344e+05
    2.7134604752e-02    1.0188022656e+05
    2.7154086158e-02    1.0188078906e+05
    2.7173558250e-02    1.0187959375e+05
    2.7193021029e-02    1.0188122656e+05
    2.7212476358e-02    1.0188456250e+05
    2.7231922373e-02    1.0188583594e+05
    2.7251357213e-02    1.0188677344e+05
    2.7270786464e-02    1.0188836719e+05
    2.7290204540e-02    1.0189224219e+05
    2.7309613302e-02    1.0189622656e+05
    2.7329014614e-02    1.0189660156e+05
    2.7348404750e-02    1.0189664844e+05
    2.7367785573e-02    1.0189839844e+05
    2.7387158945e-02    1.0190069531e+05
    2.7406521142e-02    1.0190728906e+05
    2.7425874025e-02    1.0191260156e+05
    2.7445219457e-02    1.0190987500e+05
    2.7464553714e-02    1.0191166406e+05
    2.7483878657e-02    1.0190897656e+05
    2.7503194287e-02    1.0191052344e+05
    2.7522502467e-02    1.0191222656e+05
    2.7541799471e-02    1.0191396094e+05
    2.7561087161e-02    1.0191566406e+05
    2.7580365539e-02    1.0192668750e+05
    2.7599634603e-02    1.0192846094e+05
    2.7618894354e-02    1.0192150000e+05
    2.7638144791e-02    1.0192347656e+05
    2.7657385916e-02    1.0192425781e+05
    2.7676619589e-02    1.0192628906e+05
    2.7695843950e-02    1.0192777344e+05
    2.7715058997e-02    1.0192814844e+05
    2.7734262869e-02    1.0193085156e+05
    2.7753459290e-02    1.0193253125e+05
    2.7772648260e-02    1.0193421875e+05
    2.7791827917e-02    1.0193697656e+05
    2.7810998261e-02    1.0193724219e+05
    2.7830159292e-02    1.0193953125e+05
    2.7849311009e-02    1.0193374219e+05
    2.7868455276e-02    1.0193168750e+05
    2.7887590230e-02    1.0194239844e+05
    2.7906717733e-02    1.0194296094e+05
    2.7925835922e-02    1.0194400781e+05
    2.7944946662e-02    1.0193619531e+05
    2.7964048088e-02    1.0193696875e+05
    2.7983140200e-02    1.0193733594e+05
    2.8002224863e-02    1.0194871094e+05
    2.8021300212e-02    1.0194927344e+05
    2.8040368110e-02    1.0194328125e+05
    2.8059426695e-02    1.0194737500e+05
    2.8078475967e-02    1.0195358594e+05
    2.8097519651e-02    1.0194774219e+05
    2.8116554022e-02    1.0194614844e+05
    2.8135580942e-02    1.0194680469e+05
    2.8154598549e-02    1.0194881250e+05
    2.8173606843e-02    1.0195756250e+05
    2.8192607686e-02    1.0195861719e+05
    2.8211599216e-02    1.0195160156e+05
    2.8230583295e-02    1.0195428906e+05
    2.8249559924e-02    1.0195283594e+05
    2.8268527240e-02    1.0195377344e+05
    2.8287487105e-02    1.0196413281e+05
    2.8306435794e-02    1.0196139844e+05
    2.8325378895e-02    1.0195799219e+05
    2.8344312683e-02    1.0196363281e+05
    2.8363237157e-02    1.0196641406e+05
    2.8382156044e-02    1.0196172656e+05
    2.8401065618e-02    1.0196780469e+05
    2.8419965878e-02    1.0197303906e+05
    2.8438858688e-02    1.0196882031e+05
    2.8457742184e-02    1.0196525781e+05
    2.8476616368e-02    1.0196617969e+05
    2.8495483100e-02    1.0197652344e+05
    2.8514338657e-02    1.0197785156e+05
    2.8533160686e-02    1.0198027344e+05
    2.8551930562e-02    1.0197553125e+05
    2.8570635244e-02    1.0197211719e+05
    2.8589271009e-02    1.0198308594e+05
    2.8607837856e-02    1.0198444531e+05
    2.8626350686e-02    1.0198639844e+05
    2.8644818813e-02    1.0198277344e+05
    2.8663259000e-02    1.0198817969e+05
    2.8681686148e-02    1.0198856250e+05
    2.8700113297e-02    1.0199247656e+05
    2.8718546033e-02    1.0199405469e+05
    2.8736986220e-02    1.0199438281e+05
    2.8755431995e-02    1.0199571094e+05
    2.8773877770e-02    1.0199693750e+05
    2.8792314231e-02    1.0199750781e+05
    2.8810730204e-02    1.0199514844e+05
    2.8829116374e-02    1.0199449219e+05
    2.8847465292e-02    1.0199889844e+05
    2.8865773231e-02    1.0199605469e+05
    2.8884036466e-02    1.0199639844e+05
    2.8902258724e-02    1.0199316406e+05
    2.8920443729e-02    1.0199353906e+05
    2.8938598931e-02    1.0199452344e+05
    2.8956729919e-02    1.0199671875e+05
    2.8974846005e-02    1.0199719531e+05
    2.8992949054e-02    1.0199747656e+05
    2.9011042789e-02    1.0199808594e+05
    2.9029129073e-02    1.0199388281e+05
    2.9047204182e-02    1.0199378906e+05
    2.9065268114e-02    1.0198828125e+05
    2.9083315283e-02    1.0198733594e+05
    2.9101338238e-02    1.0198874219e+05
    2.9119335115e-02    1.0199492969e+05
    2.9137304053e-02    1.0199464844e+05
    2.9155241325e-02    1.0198396094e+05
    2.9173148796e-02    1.0198350000e+05
    2.9191024601e-02    1.0198375781e+05
    2.9208874330e-02    1.0198983594e+05
    2.9226697981e-02    1.0198750000e+05
    2.9244501144e-02    1.0198527344e+05
    2.9262285680e-02    1.0199066406e+05
    2.9280053452e-02    1.0199593750e+05
    2.9297806323e-02    1.0199264844e+05
    2.9315544292e-02    1.0198846094e+05
    2.9333265498e-02    1.0199330469e+05
    2.9350971803e-02    1.0199917969e+05
    2.9368655756e-02    1.0200055469e+05
    2.9386319220e-02    1.0200130469e+05
    2.9403960332e-02    1.0200207031e+05
    2.9421577230e-02    1.0200296875e+05
    2.9439168051e-02    1.0200397656e+05
    2.9456734657e-02    1.0200497656e+05
    2.9474277049e-02    1.0200597656e+05
    2.9491795227e-02    1.0200721094e+05
    2.9509292915e-02    1.0201072656e+05
    2.9526771978e-02    1.0201555469e+05
    2.9544232413e-02    1.0201542969e+05
    2.9561674222e-02    1.0202009375e+05
    2.9579099268e-02    1.0202125781e+05
    2.9596509412e-02    1.0202691406e+05
    2.9613900930e-02    1.0202797656e+05
    2.9631273821e-02    1.0202039844e+05
    2.9648626223e-02    1.0202136719e+05
    2.9665958136e-02    1.0202760156e+05
    2.9683271423e-02    1.0203138281e+05
    2.9700560495e-02    1.0202413281e+05
    2.9717829078e-02    1.0202489844e+05
    2.9735075310e-02    1.0202905469e+05
    2.9752301052e-02    1.0203452344e+05
    2.9769508168e-02    1.0203474219e+05
    2.9786696658e-02    1.0203235156e+05
    2.9803866521e-02    1.0202982031e+05
    2.9821017757e-02    1.0203057031e+05
    2.9838152230e-02    1.0203146094e+05
    2.9855269939e-02    1.0203110156e+05
    2.9872370884e-02    1.0203180469e+05
    2.9889453202e-02    1.0203244531e+05
    2.9906518757e-02    1.0203316406e+05
    2.9923565686e-02    1.0203387500e+05
    2.9940593988e-02    1.0203574219e+05
    2.9957601801e-02    1.0203646094e+05
    2.9974590987e-02    1.0203719531e+05
    2.9991561547e-02    1.0203794531e+05
    3.0008511618e-02    1.0203872656e+05
    3.0025444925e-02    1.0203953125e+05
    3.0042361468e-02    1.0204043750e+05
    3.0059259385e-02    1.0204262500e+05
    3.0076142401e-02    1.0204380469e+05
    3.0093006790e-02    1.0204733594e+05
    3.0109854415e-02    1.0204989844e+05
    3.0126683414e-02    1.0205703906e+05
    3.0143497512e-02    1.0205241406e+05
    3.0160292983e-02    1.0205408594e+05
    3.0177071691e-02    1.0206318750e+05
    3.0193833634e-02    1.0205874219e+05
    3.0210576952e-02    1.0207046094e+05
    3.0227303505e-02    1.0206322656e+05
    3.0244011432e-02    1.0206856250e+05
    3.0260702595e-02    1.0207619531e+05
    3.0277376994e-02    1.0207803906e+05
    3.0294034630e-02    1.0207300000e+05
    3.0310675502e-02    1.0207317969e+05
    3.0327299610e-02    1.0207439844e+05
    3.0343905091e-02    1.0207621094e+05
    3.0360495672e-02    1.0208260156e+05
    3.0377071351e-02    1.0208005469e+05
    3.0393628404e-02    1.0208141406e+05
    3.0410168692e-02    1.0208381250e+05
    3.0426690355e-02    1.0208489844e+05
    3.0443195254e-02    1.0208557031e+05
    3.0459685251e-02    1.0207712500e+05
    3.0476156622e-02    1.0207725781e+05
    3.0492611229e-02    1.0206658594e+05
    3.0509050936e-02    1.0206564844e+05
    3.0525473878e-02    1.0205453906e+05
    3.0541881919e-02    1.0205235156e+05
    3.0558273196e-02    1.0205124219e+05
    3.0574647710e-02    1.0204884375e+05
    3.0591005459e-02    1.0204572656e+05
    3.0607348308e-02    1.0204410156e+05
    3.0623674393e-02    1.0203278906e+05
    3.0639985576e-02    1.0202844531e+05
    3.0656279996e-02    1.0201681250e+05
    3.0672557652e-02    1.0201277344e+05
    3.0688818544e-02    1.0200322656e+05
    3.0705062672e-02    1.0200072656e+05
    3.0721291900e-02    1.0199903906e+05
    3.0737506226e-02    1.0199533594e+05
    3.0753703788e-02    1.0199725781e+05
    3.0769886449e-02    1.0199922656e+05
    3.0786054209e-02    1.0199632031e+05
    3.0802207068e-02    1.0199347656e+05
    3.0818343163e-02    1.0199080469e+05
    3.0834466219e-02    1.0198896875e+05
    3.0850572512e-02    1.0199681250e+05
    3.0866663903e-02    1.0199491406e+05
    3.0882738531e-02    1.0200396094e+05
    3.0898798257e-02    1.0200852344e+05
    3.0914843082e-02    1.0201331250e+05
    3.0930871144e-02    1.0201528906e+05
    3.0946886167e-02    1.0202460156e+05
    3.0962884426e-02    1.0202753906e+05
    3.0978867784e-02    1.0203913281e+05
    3.0994836241e-02    1.0204203125e+05
    3.1010789797e-02    1.0205452344e+05
    3.1026728451e-02    1.0205703125e+05
    3.1042650342e-02    1.0206331250e+05
    3.1058559194e-02    1.0207430469e+05
    3.1074455008e-02    1.0207871094e+05
    3.1090334058e-02    1.0208368750e+05
    3.1106200069e-02    1.0208753906e+05
    3.1122051179e-02    1.0209183594e+05
    3.1137887388e-02    1.0209488281e+05
    3.1153710559e-02    1.0209953906e+05
    3.1169516966e-02    1.0210347656e+05
    3.1185310334e-02    1.0209758594e+05
    3.1201090664e-02    1.0210246094e+05
    3.1216854230e-02    1.0210500781e+05
    3.1232602894e-02    1.0210978906e+05
    3.1248336658e-02    1.0211331250e+05
    3.1264055520e-02    1.0211607031e+05
    3.1279761344e-02    1.0211600000e+05
    3.1295452267e-02    1.0211400000e+05
    3.1311132014e-02    1.0211128906e+05
    3.1326796860e-02    1.0210725781e+05
    3.1342446804e-02    1.0210852344e+05
    3.1358085573e-02    1.0211021094e+05
    3.1373709440e-02    1.0210258594e+05
    3.1389318407e-02    1.0210286719e+05
    3.1404916197e-02    1.0210443750e+05
    3.1420499086e-02    1.0211478125e+05
    3.1436067075e-02    1.0211610156e+05
    3.1451620162e-02    1.0211621094e+05
    3.1467158347e-02    1.0210922656e+05
    3.1482685357e-02    1.0211010156e+05
    3.1498193741e-02    1.0211085156e+05
    3.1513694674e-02    1.0211156250e+05
    3.1529176980e-02    1.0211171094e+05
    3.1544648111e-02    1.0211178125e+05
    3.1560108066e-02    1.0211352344e+05
    3.1575553119e-02    1.0211346094e+05
    3.1590986997e-02    1.0211339844e+05
    3.1606405973e-02    1.0211387500e+05
    3.1621813774e-02    1.0211546875e+05
    3.1637206674e-02    1.0211110156e+05
    3.1652588397e-02    1.0210686719e+05
    3.1667951494e-02    1.0211175781e+05
    3.1683307141e-02    1.0211368750e+05
    3.1698647887e-02    1.0211431250e+05
    3.1713977456e-02    1.0210675000e+05
    3.1729292125e-02    1.0210571094e+05
    3.1744595617e-02    1.0210489844e+05
    3.1759884208e-02    1.0209446094e+05
    3.1775161624e-02    1.0209334375e+05
    3.1790427864e-02    1.0208160156e+05
    3.1805675477e-02    1.0208066406e+05
    3.1820915639e-02    1.0207991406e+05
    3.1836140901e-02    1.0208616406e+05
    3.1851354986e-02    1.0208410156e+05
    3.1866557896e-02    1.0208211719e+05
    3.1881745905e-02    1.0208068750e+05
    3.1896922737e-02    1.0207927344e+05
    3.1912088394e-02    1.0207764844e+05
    3.1927239150e-02    1.0207650781e+05
    3.1942378730e-02    1.0207253906e+05
    3.1957507133e-02    1.0207260156e+05
    3.1972620636e-02    1.0207240625e+05
    3.1987726688e-02    1.0207143750e+05
    3.2002814114e-02    1.0207877344e+05
    3.2017890364e-02    1.0207833594e+05
    3.2032959163e-02    1.0207796875e+05
    3.2048013061e-02    1.0207747656e+05
    3.2063052058e-02    1.0207671094e+05
    3.2078083605e-02    1.0206640625e+05
    3.2093103975e-02    1.0206434375e+05
    3.2108109444e-02    1.0206322656e+05
    3.2123107463e-02    1.0205914844e+05
    3.2138090581e-02    1.0205787500e+05
    3.2153062522e-02    1.0205783594e+05
    3.2168023288e-02    1.0205688281e+05
    3.2182972878e-02    1.0205568750e+05
    3.2197911292e-02    1.0205537500e+05
    3.2212834805e-02    1.0206277344e+05
    3.2227750868e-02    1.0206233594e+05
    3.2242652029e-02    1.0206090625e+05
    3.2257542014e-02    1.0206058594e+05
    3.2272424549e-02    1.0206019531e+05
    3.2287292182e-02    1.0206086719e+05
    3.2302148640e-02    1.0206043750e+05
    3.2316997647e-02    1.0206008594e+05
    3.2331831753e-02    1.0205988281e+05
    3.2346658409e-02    1.0205994531e+05
    3.2361470163e-02    1.0206496094e+05
    3.2376270741e-02    1.0206532031e+05
    3.2391063869e-02    1.0206102344e+05
    3.2405842096e-02    1.0206125781e+05
    3.2420612872e-02    1.0206147656e+05
    3.2435368747e-02    1.0206169531e+05
    3.2450113446e-02    1.0206086719e+05
    3.2464850694e-02    1.0207042969e+05
    3.2479573041e-02    1.0207202344e+05
    3.2494287938e-02    1.0206322656e+05
    3.2508991659e-02    1.0206349219e+05
    3.2523684204e-02    1.0206314844e+05
    3.2538365573e-02    1.0206283594e+05
    3.2553035766e-02    1.0206422656e+05
    3.2567698509e-02    1.0207255469e+05
    3.2582346350e-02    1.0206361719e+05
    3.2596986741e-02    1.0206381250e+05
    3.2611619681e-02    1.0206396094e+05
    3.2626237720e-02    1.0206296094e+05
    3.2640848309e-02    1.0206533594e+05
    3.2655447721e-02    1.0206321094e+05
    3.2670035958e-02    1.0206331250e+05
    3.2684613019e-02    1.0206319531e+05
    3.2699178904e-02    1.0206282031e+05
    3.2713737339e-02    1.0206212500e+05
    3.2728284597e-02    1.0205196875e+05
    3.2742820680e-02    1.0205077344e+05
    3.2757349312e-02    1.0204957031e+05
    3.2771866769e-02    1.0204908594e+05
    3.2786373049e-02    1.0205567969e+05
    3.2800871879e-02    1.0205746094e+05
    3.2815355808e-02    1.0205582031e+05
    3.2829832286e-02    1.0205530469e+05
    3.2844301313e-02    1.0205471094e+05
    3.2858755440e-02    1.0205402344e+05
    3.2873202115e-02    1.0204516406e+05
    3.2887637615e-02    1.0204438281e+05
    3.2902065665e-02    1.0204707031e+05
    3.2916482538e-02    1.0205347656e+05
    3.2930891961e-02    1.0205315625e+05
    3.2945290208e-02    1.0205290625e+05
    3.2959677279e-02    1.0205387500e+05
    3.2974056900e-02    1.0205313281e+05
    3.2988425344e-02    1.0205236719e+05
    3.3002786338e-02    1.0205264844e+05
    3.3017136157e-02    1.0204878906e+05
    3.3031478524e-02    1.0204899219e+05
    3.3045809716e-02    1.0204639844e+05
    3.3060129732e-02    1.0205300781e+05
    3.3074442297e-02    1.0205289844e+05
    3.3088747412e-02    1.0205225000e+05
    3.3103041351e-02    1.0205174219e+05
    3.3117324114e-02    1.0205234375e+05
    3.3131599426e-02    1.0205303125e+05
    3.3145863563e-02    1.0205318750e+05
    3.3160120249e-02    1.0205334375e+05
    3.3174365759e-02    1.0205466406e+05
    3.3188603818e-02    1.0205477344e+05
    3.3202830702e-02    1.0205480469e+05
    3.3217050135e-02    1.0205478906e+05
    3.3231258392e-02    1.0205471875e+05
    3.3245459199e-02    1.0205116406e+05
    3.3259648830e-02    1.0205447656e+05
    3.3273831010e-02    1.0205138281e+05
    3.3288005739e-02    1.0204496094e+05
    3.3302169293e-02    1.0204482031e+05
    3.3316325396e-02    1.0205111719e+05
    3.3330474049e-02    1.0205397656e+05
    3.3344611526e-02    1.0205350000e+05
    3.3358741552e-02    1.0205409375e+05
    3.3372864127e-02    1.0205410156e+05
    3.3386975527e-02    1.0204891406e+05
    3.3401079476e-02    1.0204418750e+05
    3.3415172249e-02    1.0205100781e+05
    3.3429257572e-02    1.0204919531e+05
    3.3443335444e-02    1.0204421875e+05
    3.3457405865e-02    1.0204375781e+05
    3.3471468836e-02    1.0204322656e+05
    3.3485524356e-02    1.0204032031e+05
    3.3499568701e-02    1.0203957031e+05
    3.3513605595e-02    1.0203881250e+05
    3.3527631313e-02    1.0203908594e+05
    3.3541653305e-02    1.0203817969e+05
    3.3555664122e-02    1.0203375781e+05
    3.3569667488e-02    1.0202802344e+05
    3.3583663404e-02    1.0202557031e+05
    3.3597648144e-02    1.0202321094e+05
    3.3611625433e-02    1.0202200781e+05
    3.3625595272e-02    1.0202087500e+05
    3.3639557660e-02    1.0201983594e+05
    3.3653512597e-02    1.0202282031e+05
    3.3667460084e-02    1.0202131250e+05
    3.3681396395e-02    1.0201606250e+05
    3.3695328981e-02    1.0201521094e+05
    3.3709254116e-02    1.0201350000e+05
    3.3723168075e-02    1.0200803906e+05
    3.3737078309e-02    1.0200102344e+05
    3.3750977367e-02    1.0199590625e+05
    3.3764872700e-02    1.0199296875e+05
    3.3778760582e-02    1.0198889844e+05
    3.3792637289e-02    1.0198599219e+05
    3.3806510270e-02    1.0198435156e+05
    3.3820372075e-02    1.0198175781e+05
    3.3834230155e-02    1.0197803125e+05
    3.3848077059e-02    1.0197658594e+05
    3.3861916512e-02    1.0197267969e+05
    3.3875752240e-02    1.0196978906e+05
    3.3889576793e-02    1.0196442969e+05
    3.3903393894e-02    1.0195659375e+05
    3.3917203546e-02    1.0195092969e+05
    3.3931009471e-02    1.0195221094e+05
    3.3944804221e-02    1.0195396094e+05
    3.3958595246e-02    1.0195121094e+05
    3.3972378820e-02    1.0194858594e+05
    3.3986151218e-02    1.0194722656e+05
    3.3999919891e-02    1.0194367969e+05
    3.4013681114e-02    1.0194246875e+05
    3.4027434886e-02    1.0194009375e+05
    3.4041177481e-02    1.0193781250e+05
    3.4054916352e-02    1.0193447656e+05
    3.4068647772e-02    1.0193346875e+05
    3.4082375467e-02    1.0193371094e+05
    3.4096091986e-02    1.0193985156e+05
    3.4109804779e-02    1.0193739844e+05
    3.4123510122e-02    1.0193316406e+05
    3.4137208015e-02    1.0192930469e+05
    3.4150898457e-02    1.0192708594e+05
    3.4164581448e-02    1.0192702344e+05
    3.4178260714e-02    1.0192246094e+05
    3.4191932529e-02    1.0191974219e+05
    3.4205596894e-02    1.0192185156e+05
    3.4219253808e-02    1.0192125000e+05
    3.4232903272e-02    1.0191978906e+05
    3.4246545285e-02    1.0191981250e+05
    3.4260183573e-02    1.0191786719e+05
    3.4273810685e-02    1.0192307031e+05
    3.4287434071e-02    1.0192344531e+05
    3.4301050007e-02    1.0192871094e+05
    3.4314658493e-02    1.0192884375e+05
    3.4328263253e-02    1.0192950781e+05
    3.4341860563e-02    1.0192942969e+05
    3.4355450422e-02    1.0192978125e+05
    3.4369036555e-02    1.0192712500e+05
    3.4382611513e-02    1.0192303906e+05
    3.4396182746e-02    1.0191778906e+05
    3.4409742802e-02    1.0192221094e+05
    3.4423299134e-02    1.0192637500e+05
    3.4436848015e-02    1.0192543750e+05
    3.4450393170e-02    1.0192510156e+05
    3.4463927150e-02    1.0192478906e+05
    3.4477461129e-02    1.0191992969e+05
    3.4490987659e-02    1.0191535156e+05
    3.4504506737e-02    1.0191522656e+05
    3.4518022090e-02    1.0191450781e+05
    3.4531529993e-02    1.0191263281e+05
    3.4545030445e-02    1.0191072656e+05
    3.4558523446e-02    1.0191005469e+05
    3.4572008997e-02    1.0191164844e+05
    3.4585487098e-02    1.0191565625e+05
    3.4598957747e-02    1.0191290625e+05
    3.4612424672e-02    1.0190750781e+05
    3.4625884145e-02    1.0190711719e+05
    3.4639336169e-02    1.0190647656e+05
    3.4652780741e-02    1.0190053906e+05
    3.4666225314e-02    1.0189416406e+05
    3.4679658711e-02    1.0189235156e+05
    3.4693088382e-02    1.0188993750e+05
    3.4706510603e-02    1.0188762500e+05
    3.4719929099e-02    1.0188610156e+05
    3.4733340144e-02    1.0188934375e+05
    3.4746743739e-02    1.0189268750e+05
    3.4760143608e-02    1.0189150000e+05
    3.4773536026e-02    1.0189012500e+05
    3.4786924720e-02    1.0187944531e+05
    3.4800305963e-02    1.0187772656e+05
    3.4813679755e-02    1.0187646094e+05
    3.4827046096e-02    1.0187396094e+05
    3.4840408713e-02    1.0187200000e+05
    3.4853763878e-02    1.0187010156e+05
    3.4867111593e-02    1.0186824219e+05
    3.4880455583e-02    1.0186764844e+05
    3.4893795848e-02    1.0186489844e+05
    3.4907124937e-02    1.0186900781e+05
    3.4920454025e-02    1.0187113281e+05
    3.4933775663e-02    1.0186340625e+05
    3.4947093576e-02    1.0185943750e+05
    3.4960404038e-02    1.0185702344e+05
    3.4973710775e-02    1.0185510156e+05
    3.4987010062e-02    1.0185365625e+05
endcurve
