Curveplot
LS-DYNA keyword deck by LS-PrePost                          
Time
Pressure
Defined Connection
Pressure @ 68 #pts=1745
* Minval=     9.9673492188e+04 at time=         0.0158492047
* Maxval=     1.6788695312e+05 at time=         0.0071361698
    0.0000000000e+00    9.9996789062e+04
    3.3812357287e-05    9.9996789062e+04
    6.1326652940e-05    9.9999343750e+04
    8.9102875791e-05    9.9998398438e+04
    1.1682785407e-04    9.9997414062e+04
    1.4461828687e-04    9.9997710938e+04
    1.7236733402e-04    9.9999437500e+04
    2.0016246708e-04    1.0001041406e+05
    2.2795486439e-04    1.0000075000e+05
    2.5574557367e-04    9.9999601562e+04
    2.8353667585e-04    9.9999304688e+04
    3.1133697485e-04    9.9991062500e+04
    3.3912662184e-04    1.0000130469e+05
    3.6691734567e-04    9.9999257812e+04
    3.9470891352e-04    9.9999585938e+04
    4.2249175021e-04    1.0000072656e+05
    4.5027161832e-04    1.0000252344e+05
    4.7804549104e-04    1.0000253906e+05
    5.0581363030e-04    1.0000303906e+05
    5.3357944125e-04    1.0000335156e+05
    5.6134146871e-04    1.0000203125e+05
    5.8909942163e-04    1.0000158594e+05
    6.1685312539e-04    9.9993156250e+04
    6.4460188150e-04    1.0000197656e+05
    6.7234638846e-04    1.0000074219e+05
    7.0008635521e-04    9.9996000000e+04
    7.2782178177e-04    9.9992445312e+04
    7.5555208605e-04    1.0000156250e+05
    7.8327720985e-04    1.0000414844e+05
    8.1099680392e-04    1.0001150000e+05
    8.3871174138e-04    1.0000261719e+05
    8.6642213864e-04    9.9997812500e+04
    8.9412782108e-04    9.9995132812e+04
    9.2182843946e-04    1.0000071094e+05
    9.4952445943e-04    9.9995460938e+04
    9.7721535712e-04    9.9999148438e+04
    1.0049008997e-03    9.9997812500e+04
    1.0325826006e-03    1.0000113281e+05
    1.0602590628e-03    1.0000028906e+05
    1.0879321489e-03    1.0000653906e+05
    1.1155996472e-03    1.0000246094e+05
    1.1432634201e-03    9.9993273438e+04
    1.1709230021e-03    9.9992804688e+04
    1.1985785095e-03    1.0000121094e+05
    1.2262313394e-03    1.0001130469e+05
    1.2538790470e-03    1.0000277344e+05
    1.2815232622e-03    1.0000305469e+05
    1.3091630535e-03    1.0000028125e+05
    1.3368004002e-03    1.0000189844e+05
    1.3644339051e-03    1.0000683594e+05
    1.3920635683e-03    1.0002453906e+05
    1.4196902048e-03    1.0005349219e+05
    1.4473132323e-03    1.0010103125e+05
    1.4749332331e-03    1.0019186719e+05
    1.5025498578e-03    1.0033193750e+05
    1.5301633393e-03    1.0052072656e+05
    1.5577742597e-03    1.0077242969e+05
    1.5853822697e-03    1.0109788281e+05
    1.6129877185e-03    1.0146186719e+05
    1.6405890929e-03    1.0186288281e+05
    1.6681876732e-03    1.0225000000e+05
    1.6957829939e-03    1.0260021094e+05
    1.7233766848e-03    1.0287296875e+05
    1.7509678146e-03    1.0305058594e+05
    1.7785291420e-03    1.0313785156e+05
    1.8060547300e-03    1.0313697656e+05
    1.8335470231e-03    1.0305478125e+05
    1.8610082334e-03    1.0291608594e+05
    1.8884401070e-03    1.0275278125e+05
    1.9158447394e-03    1.0258047656e+05
    1.9432241097e-03    1.0241514844e+05
    1.9705800805e-03    1.0229102344e+05
    1.9979148638e-03    1.0222017969e+05
    2.0252298564e-03    1.0219291406e+05
    2.0525271539e-03    1.0221371094e+05
    2.0798076876e-03    1.0227364844e+05
    2.1070730872e-03    1.0234510156e+05
    2.1343247499e-03    1.0242027344e+05
    2.1615643054e-03    1.0247888281e+05
    2.1887931507e-03    1.0252799219e+05
    2.2160108201e-03    1.0254866406e+05
    2.2432196420e-03    1.0254106250e+05
    2.2704207804e-03    1.0251328125e+05
    2.2976147011e-03    1.0247502344e+05
    2.3248014040e-03    1.0244035156e+05
    2.3519827519e-03    1.0241821094e+05
    2.3791582789e-03    1.0239885156e+05
    2.4063293822e-03    1.0238528906e+05
    2.4334960617e-03    1.0238925781e+05
    2.4606597144e-03    1.0239096094e+05
    2.4878205732e-03    1.0240924219e+05
    2.5149781723e-03    1.0242650000e+05
    2.5421329774e-03    1.0244139844e+05
    2.5692859199e-03    1.0244753125e+05
    2.5964374654e-03    1.0244487500e+05
    2.6235871483e-03    1.0244625000e+05
    2.6507352013e-03    1.0243428906e+05
    2.6778825559e-03    1.0243327344e+05
    2.7050296776e-03    1.0242200000e+05
    2.7321761008e-03    1.0241372656e+05
    2.7593218256e-03    1.0241064844e+05
    2.7864677832e-03    1.0242147656e+05
    2.8136142064e-03    1.0242486719e+05
    2.8407603968e-03    1.0243619531e+05
    2.8679079842e-03    1.0245191406e+05
    2.8950548731e-03    1.0246503906e+05
    2.9222022276e-03    1.0248264844e+05
    2.9493502807e-03    1.0251450781e+05
    2.9764990322e-03    1.0257328906e+05
    3.0036487151e-03    1.0264535156e+05
    3.0307997949e-03    1.0272575000e+05
    3.0579508748e-03    1.0281206250e+05
    3.0851035845e-03    1.0290485156e+05
    3.1122572254e-03    1.0301439844e+05
    3.1394117977e-03    1.0312244531e+05
    3.1665677670e-03    1.0321475000e+05
    3.1937246677e-03    1.0327014844e+05
    3.2208829653e-03    1.0330136719e+05
    3.2480424270e-03    1.0330413281e+05
    3.2752046827e-03    1.0328639844e+05
    3.2952371985e-03    1.0325660156e+05
    3.3145032357e-03    1.0322771094e+05
    3.3336398192e-03    1.0318977344e+05
    3.3528339118e-03    1.0314985156e+05
    3.3720366191e-03    1.0310121094e+05
    3.3912549261e-03    1.0305491406e+05
    3.4104890656e-03    1.0301424219e+05
    3.4297339153e-03    1.0297040625e+05
    3.4486323129e-03    1.0292849219e+05
    3.4671388566e-03    1.0287830469e+05
    3.4854323603e-03    1.0283110156e+05
    3.5036695190e-03    1.0276997656e+05
    3.5219141282e-03    1.0270478125e+05
    3.5401545465e-03    1.0263621875e+05
    3.5583588760e-03    1.0256928906e+05
    3.5765271168e-03    1.0249918750e+05
    3.5946895368e-03    1.0243521875e+05
    3.6139658187e-03    1.0237439844e+05
    3.6330535077e-03    1.0232161719e+05
    3.6521453876e-03    1.0227747656e+05
    3.6699753255e-03    1.0224091406e+05
    3.6875614896e-03    1.0222215625e+05
    3.7050142419e-03    1.0220527344e+05
    3.7224807311e-03    1.0220022656e+05
    3.7400643341e-03    1.0218846094e+05
    3.7577797193e-03    1.0216952344e+05
    3.7755726371e-03    1.0216153906e+05
    3.7933769636e-03    1.0215216406e+05
    3.8111612666e-03    1.0214027344e+05
    3.8289318327e-03    1.0213277344e+05
    3.8467168342e-03    1.0212503906e+05
    3.8645383902e-03    1.0211528906e+05
    3.8824023213e-03    1.0211175781e+05
    3.9002960548e-03    1.0209978906e+05
    3.9182156324e-03    1.0209208594e+05
    3.9361710660e-03    1.0207382031e+05
    3.9541716687e-03    1.0204939844e+05
    3.9733103476e-03    1.0203050781e+05
    3.9924201556e-03    1.0201292969e+05
    4.0104058571e-03    1.0199977344e+05
    4.0284004062e-03    1.0198828125e+05
    4.0464363992e-03    1.0198186719e+05
    4.0656095371e-03    1.0197714844e+05
    4.0847789496e-03    1.0197572656e+05
    4.1039343923e-03    1.0196241406e+05
    4.1219722480e-03    1.0195503906e+05
    4.1400394402e-03    1.0194782031e+05
    4.1591953486e-03    1.0193609375e+05
    4.1784178466e-03    1.0192432031e+05
    4.1976389475e-03    1.0192071875e+05
    4.2168586515e-03    1.0191074219e+05
    4.2360713705e-03    1.0190914844e+05
    4.2552771047e-03    1.0190111719e+05
    4.2744791135e-03    1.0189771094e+05
    4.2936825193e-03    1.0188252344e+05
    4.3128933758e-03    1.0186694531e+05
    4.3321144767e-03    1.0185400781e+05
    4.3513495475e-03    1.0183091406e+05
    4.3705995195e-03    1.0181350781e+05
    4.3898657896e-03    1.0179872656e+05
    4.4091497548e-03    1.0177821094e+05
    4.4284537435e-03    1.0175539844e+05
    4.4477786869e-03    1.0172444531e+05
    4.4671236537e-03    1.0168800000e+05
    4.4864914380e-03    1.0163075781e+05
    4.5058806427e-03    1.0156510156e+05
    4.5252908021e-03    1.0148816406e+05
    4.5447219163e-03    1.0139964844e+05
    4.5641721226e-03    1.0130766406e+05
    4.5836409554e-03    1.0120814844e+05
    4.6031279489e-03    1.0110090625e+05
    4.6226321720e-03    1.0098941406e+05
    4.6421540901e-03    1.0086464844e+05
    4.6616927721e-03    1.0074397656e+05
    4.6812482178e-03    1.0061803125e+05
    4.7008208930e-03    1.0049730469e+05
    4.7204112634e-03    1.0039200781e+05
    4.7400193289e-03    1.0029872656e+05
    4.7596455552e-03    1.0023196875e+05
    4.7792894766e-03    1.0017792969e+05
    4.7989510931e-03    1.0015494531e+05
    4.8186304048e-03    1.0014582031e+05
    4.8383255489e-03    1.0015421094e+05
    4.8580355942e-03    1.0018550781e+05
    4.8777610064e-03    1.0023266406e+05
    4.8975008540e-03    1.0029196094e+05
    4.9172551371e-03    1.0035366406e+05
    4.9370229244e-03    1.0041660156e+05
    4.9568060786e-03    1.0047553906e+05
    4.9766036682e-03    1.0052871875e+05
    4.9964170903e-03    1.0057277344e+05
    5.0162458792e-03    1.0061262500e+05
    5.0360900350e-03    1.0064003125e+05
    5.0559476949e-03    1.0066559375e+05
    5.0758207217e-03    1.0067728125e+05
    5.0957072526e-03    1.0068393750e+05
    5.1156077534e-03    1.0067552344e+05
    5.1355226897e-03    1.0066508594e+05
    5.1554525271e-03    1.0065008594e+05
    5.1753963344e-03    1.0062911719e+05
    5.1953555085e-03    1.0061753906e+05
    5.2153295837e-03    1.0059950000e+05
    5.2353194915e-03    1.0058578125e+05
    5.2553247660e-03    1.0057821094e+05
    5.2753463387e-03    1.0057474219e+05
    5.2953832783e-03    1.0057209375e+05
    5.3154369816e-03    1.0057372656e+05
    5.3355065174e-03    1.0057971875e+05
    5.3555918857e-03    1.0059308594e+05
    5.3756926209e-03    1.0060344531e+05
    5.3958082572e-03    1.0061477344e+05
    5.4159392603e-03    1.0062885156e+05
    5.4360851645e-03    1.0063921094e+05
    5.4562464356e-03    1.0064542969e+05
    5.4764230736e-03    1.0065363281e+05
    5.4966160096e-03    1.0065941406e+05
    5.5168238468e-03    1.0066858594e+05
    5.5370470509e-03    1.0067328906e+05
    5.5572865531e-03    1.0067403906e+05
    5.5775423534e-03    1.0066725000e+05
    5.5978130549e-03    1.0066961719e+05
    5.6181000546e-03    1.0067341406e+05
    5.6384028867e-03    1.0067224219e+05
    5.6587206200e-03    1.0067403125e+05
    5.6790532544e-03    1.0067611719e+05
    5.6994007900e-03    1.0067872656e+05
    5.7197632268e-03    1.0068178125e+05
    5.7401410304e-03    1.0068625781e+05
    5.7605337352e-03    1.0068967969e+05
    5.7809422724e-03    1.0069250000e+05
    5.8013652451e-03    1.0069590625e+05
    5.8218040504e-03    1.0069991406e+05
    5.8422577567e-03    1.0070446094e+05
    5.8627268299e-03    1.0070935156e+05
    5.8832112700e-03    1.0072022656e+05
    5.9037101455e-03    1.0072335156e+05
    5.9242248535e-03    1.0071841406e+05
    5.9447535314e-03    1.0072247656e+05
    5.9641525149e-03    1.0073703125e+05
    5.9830932878e-03    1.0074165625e+05
    6.0020405799e-03    1.0074874219e+05
    6.0210367665e-03    1.0075889844e+05
    6.0400799848e-03    1.0076675000e+05
    6.0591096990e-03    1.0077040625e+05
    6.0781282373e-03    1.0076991406e+05
    6.0972142965e-03    1.0077827344e+05
    6.1162756756e-03    1.0078275000e+05
    6.1353649944e-03    1.0078730469e+05
    6.1544459313e-03    1.0079449219e+05
    6.1734300107e-03    1.0080783594e+05
    6.1924448237e-03    1.0081358594e+05
    6.2115197070e-03    1.0082184375e+05
    6.2306127511e-03    1.0083475781e+05
    6.2497169711e-03    1.0083996094e+05
    6.2688281760e-03    1.0085118750e+05
    6.2879407778e-03    1.0086292969e+05
    6.3070552424e-03    1.0087993750e+05
    6.3261794858e-03    1.0089090625e+05
    6.3453060575e-03    1.0090940625e+05
    6.3644465990e-03    1.0092769531e+05
    6.3835908659e-03    1.0094816406e+05
    6.4027444459e-03    1.0096941406e+05
    6.4219115302e-03    1.0098200000e+05
    6.4410855994e-03    1.0100300000e+05
    6.4602680504e-03    1.0101644531e+05
    6.4794607460e-03    1.0103213281e+05
    6.4986641519e-03    1.0104318750e+05
    6.5178787336e-03    1.0105719531e+05
    6.5371058881e-03    1.0106022656e+05
    6.5563363023e-03    1.0106343750e+05
    6.5755699761e-03    1.0106802344e+05
    6.5948092379e-03    1.0107296094e+05
    6.6140629351e-03    1.0107236719e+05
    6.6333152354e-03    1.0107022656e+05
    6.6525745206e-03    1.0106709375e+05
    6.6718445159e-03    1.0106371094e+05
    6.6911154427e-03    1.0107000781e+05
    6.7104012705e-03    1.0106769531e+05
    6.7296870984e-03    1.0106958594e+05
    6.7489854991e-03    1.0107235156e+05
    6.7682852969e-03    1.0107585156e+05
    6.7875892855e-03    1.0107452344e+05
    6.8069072440e-03    1.0107878906e+05
    6.8262196146e-03    1.0108718750e+05
    6.8455408327e-03    1.0111599219e+05
    6.8648783490e-03    1.0117728125e+05
    6.8842126057e-03    1.0130096094e+05
    6.9035501219e-03    1.0156105469e+05
    6.9228983484e-03    1.0208214844e+05
    6.9422605447e-03    1.0312222656e+05
    6.9616222754e-03    1.0508949219e+05
    6.9809844717e-03    1.0856441406e+05
    7.0003494620e-03    1.1415481250e+05
    7.0197195746e-03    1.2218069531e+05
    7.0390999317e-03    1.3232603125e+05
    7.0584909990e-03    1.4338884375e+05
    7.0778946392e-03    1.5364756250e+05
    7.0973108523e-03    1.6149614062e+05
    7.1167377755e-03    1.6617293750e+05
    7.1361698210e-03    1.6788695312e+05
    7.1556069888e-03    1.6745879688e+05
    7.1750483476e-03    1.6586726562e+05
    7.1944966912e-03    1.6396121875e+05
    7.2139529511e-03    1.6228765625e+05
    7.2334166616e-03    1.6095087500e+05
    7.2528840974e-03    1.5983460938e+05
    7.2723543271e-03    1.5876412500e+05
    7.2918278165e-03    1.5756481250e+05
    7.3113050312e-03    1.5613520312e+05
    7.3307845742e-03    1.5447370312e+05
    7.3502692394e-03    1.5265742188e+05
    7.3697618209e-03    1.5078415625e+05
    7.3892641813e-03    1.4894970312e+05
    7.4087800458e-03    1.4721985938e+05
    7.4282912537e-03    1.4560604688e+05
    7.4477996677e-03    1.4409845312e+05
    7.4673094787e-03    1.4267085938e+05
    7.4868267402e-03    1.4129315625e+05
    7.5063589029e-03    1.3995204688e+05
    7.5258887373e-03    1.3864217188e+05
    7.5454111211e-03    1.3737932812e+05
    7.5649353676e-03    1.3617184375e+05
    7.5844703242e-03    1.3504935938e+05
    7.6040057465e-03    1.3401453125e+05
    7.6235276647e-03    1.3307350000e+05
    7.6430505142e-03    1.3221864062e+05
    7.6625877991e-03    1.3143459375e+05
    7.6821087860e-03    1.3071622656e+05
    7.7016241848e-03    1.3003671094e+05
    7.7211544849e-03    1.2939188281e+05
    7.7406810597e-03    1.2877500000e+05
    7.7602043748e-03    1.2817882031e+05
    7.7797495760e-03    1.2760346094e+05
    7.7992938459e-03    1.2703394531e+05
    7.8188432381e-03    1.2648403906e+05
    7.8384252265e-03    1.2593614844e+05
    7.8580006957e-03    1.2539966406e+05
    7.8775910661e-03    1.2487199219e+05
    7.8972103074e-03    1.2434772656e+05
    7.9168286175e-03    1.2382489844e+05
    7.9364804551e-03    1.2332005469e+05
    7.9561360180e-03    1.2281416406e+05
    7.9758102074e-03    1.2232969531e+05
    7.9955114052e-03    1.2186313281e+05
    8.0152126029e-03    1.2142168750e+05
    8.0349491909e-03    1.2100005469e+05
    8.0546662211e-03    1.2060650000e+05
    8.0743944272e-03    1.2023819531e+05
    8.0941170454e-03    1.1988836719e+05
    8.1138620153e-03    1.1955658594e+05
    8.1336386502e-03    1.1924252344e+05
    8.1534720957e-03    1.1893725000e+05
    8.1733558327e-03    1.1863835156e+05
    8.1932730973e-03    1.1835475781e+05
    8.2132071257e-03    1.1808103906e+05
    8.2330890000e-03    1.1782521094e+05
    8.2529615611e-03    1.1758596094e+05
    8.2727763802e-03    1.1736856250e+05
    8.2926023751e-03    1.1716660156e+05
    8.3124246448e-03    1.1698050781e+05
    8.3322748542e-03    1.1680235156e+05
    8.3521194756e-03    1.1664190625e+05
    8.3719678223e-03    1.1648535156e+05
    8.3917891607e-03    1.1634821094e+05
    8.4116021171e-03    1.1620912500e+05
    8.4314141423e-03    1.1607896094e+05
    8.4512168542e-03    1.1594841406e+05
    8.4710381925e-03    1.1581752344e+05
    8.4908353165e-03    1.1567908594e+05
    8.5106678307e-03    1.1554550781e+05
    8.5304882377e-03    1.1541347656e+05
    8.5503393784e-03    1.1528722656e+05
    8.5699046031e-03    1.1517361719e+05
    8.5892248899e-03    1.1505921094e+05
    8.6083402857e-03    1.1495734375e+05
    8.6272666231e-03    1.1485140625e+05
    8.6460309103e-03    1.1475439844e+05
    8.6646731943e-03    1.1466364844e+05
    8.6832325906e-03    1.1456752344e+05
    8.7017398328e-03    1.1448446094e+05
    8.7202098221e-03    1.1439909375e+05
    8.7386453524e-03    1.1431457031e+05
    8.7570473552e-03    1.1422490625e+05
    8.7753897533e-03    1.1412839844e+05
    8.7936492637e-03    1.1402181250e+05
    8.8118780404e-03    1.1391211719e+05
    8.8300397620e-03    1.1379765625e+05
    8.8481390849e-03    1.1368042969e+05
    8.8662039489e-03    1.1356153906e+05
    8.8842641562e-03    1.1343947656e+05
    8.9023411274e-03    1.1332478125e+05
    8.9204348624e-03    1.1320200781e+05
    8.9385388419e-03    1.1308466406e+05
    8.9566456154e-03    1.1296689844e+05
    8.9747514576e-03    1.1284556250e+05
    8.9928600937e-03    1.1272837500e+05
    9.0109808370e-03    1.1261603906e+05
    9.0291155502e-03    1.1250771875e+05
    9.0472688898e-03    1.1241442969e+05
    9.0654399246e-03    1.1232185156e+05
    9.0836230665e-03    1.1223583594e+05
    9.1018192470e-03    1.1215096094e+05
    9.1200266033e-03    1.1207571094e+05
    9.1382460669e-03    1.1200314844e+05
    9.1564757749e-03    1.1193482031e+05
    9.1747231781e-03    1.1187002344e+05
    9.1929892078e-03    1.1180914844e+05
    9.2112747952e-03    1.1175033594e+05
    9.2295790091e-03    1.1168808594e+05
    9.2479009181e-03    1.1162049219e+05
    9.2662386596e-03    1.1155141406e+05
    9.2845931649e-03    1.1147127344e+05
    9.3029672280e-03    1.1139268750e+05
    9.3213599175e-03    1.1130314844e+05
    9.3397712335e-03    1.1121466406e+05
    9.3582011759e-03    1.1111841406e+05
    9.3766497448e-03    1.1102839844e+05
    9.3951150775e-03    1.1093527344e+05
    9.4135999680e-03    1.1084565625e+05
    9.4321016222e-03    1.1075900000e+05
    9.4506228343e-03    1.1068278906e+05
    9.4691645354e-03    1.1061161719e+05
    9.4877239317e-03    1.1055885156e+05
    9.5063010231e-03    1.1051153906e+05
    9.5248948783e-03    1.1046828906e+05
    9.5435054973e-03    1.1043121094e+05
    9.5621328801e-03    1.1040058594e+05
    9.5807760954e-03    1.1037443750e+05
    9.5994332805e-03    1.1034068750e+05
    9.6181081608e-03    1.1030735156e+05
    9.6367979422e-03    1.1026760156e+05
    9.6555035561e-03    1.1022727344e+05
    9.6742231399e-03    1.1018210156e+05
    9.6929576248e-03    1.1012902344e+05
    9.7117051482e-03    1.1007218750e+05
    9.7304685041e-03    1.1000932031e+05
    9.7492448986e-03    1.0994394531e+05
    9.7680361941e-03    1.0987807031e+05
    9.7868405282e-03    1.0981530469e+05
    9.8056588322e-03    1.0975528125e+05
    9.8244920373e-03    1.0970083594e+05
    9.8433364183e-03    1.0965168750e+05
    9.8621929064e-03    1.0960093750e+05
    9.8810633644e-03    1.0955708594e+05
    9.8999459296e-03    1.0951796875e+05
    9.9188406020e-03    1.0947966406e+05
    9.9377483130e-03    1.0944303125e+05
    9.9566690624e-03    1.0941534375e+05
    9.9756028503e-03    1.0937778906e+05
    9.9945487455e-03    1.0934378906e+05
    1.0013507679e-02    1.0930874219e+05
    1.0032479651e-02    1.0926887500e+05
    1.0051463731e-02    1.0922740625e+05
    1.0070459917e-02    1.0918228125e+05
    1.0089469142e-02    1.0913396875e+05
    1.0108492337e-02    1.0908212500e+05
    1.0127528571e-02    1.0902510156e+05
    1.0146577843e-02    1.0896287500e+05
    1.0165639222e-02    1.0890003906e+05
    1.0184712708e-02    1.0883683594e+05
    1.0203798302e-02    1.0877227344e+05
    1.0222896002e-02    1.0869994531e+05
    1.0242006741e-02    1.0862874219e+05
    1.0261129588e-02    1.0856411719e+05
    1.0280264542e-02    1.0849564844e+05
    1.0299413465e-02    1.0842708594e+05
    1.0318575427e-02    1.0835882031e+05
    1.0337748565e-02    1.0828994531e+05
    1.0356934741e-02    1.0822056250e+05
    1.0376133956e-02    1.0814872656e+05
    1.0395346209e-02    1.0808052344e+05
    1.0414571501e-02    1.0801264844e+05
    1.0433809832e-02    1.0794721094e+05
    1.0453061201e-02    1.0788185156e+05
    1.0472324677e-02    1.0781528906e+05
    1.0491601191e-02    1.0775303906e+05
    1.0510892607e-02    1.0769028906e+05
    1.0530196130e-02    1.0761771094e+05
    1.0549513623e-02    1.0755575000e+05
    1.0568842292e-02    1.0748500781e+05
    1.0588183999e-02    1.0741981250e+05
    1.0607538745e-02    1.0735128125e+05
    1.0626907460e-02    1.0728286719e+05
    1.0646289214e-02    1.0721953125e+05
    1.0665684007e-02    1.0715728125e+05
    1.0685092770e-02    1.0709527344e+05
    1.0704516433e-02    1.0702592969e+05
    1.0723951273e-02    1.0696061719e+05
    1.0743400082e-02    1.0689858594e+05
    1.0762862861e-02    1.0684571875e+05
    1.0782338679e-02    1.0678583594e+05
    1.0801829398e-02    1.0672577344e+05
    1.0821334086e-02    1.0667241406e+05
    1.0840852745e-02    1.0661972656e+05
    1.0860386305e-02    1.0656364844e+05
    1.0879932903e-02    1.0650616406e+05
    1.0899493471e-02    1.0645278125e+05
    1.0919069871e-02    1.0639746094e+05
    1.0938662104e-02    1.0634747656e+05
    1.0958270170e-02    1.0629882031e+05
    1.0977892205e-02    1.0624777344e+05
    1.0997531936e-02    1.0620214844e+05
    1.1017187499e-02    1.0614535156e+05
    1.1036860757e-02    1.0609315625e+05
    1.1056551710e-02    1.0603533594e+05
    1.1076259427e-02    1.0597608594e+05
    1.1095987633e-02    1.0591208594e+05
    1.1115733534e-02    1.0584705469e+05
    1.1135498993e-02    1.0577565625e+05
    1.1155283079e-02    1.0569735156e+05
    1.1175086722e-02    1.0561439844e+05
    1.1194912717e-02    1.0552444531e+05
    1.1214758269e-02    1.0542914844e+05
    1.1234625243e-02    1.0534111719e+05
    1.1254511774e-02    1.0524158594e+05
    1.1274418794e-02    1.0514807031e+05
    1.1294347234e-02    1.0504771094e+05
    1.1314296164e-02    1.0494153906e+05
    1.1334266514e-02    1.0483144531e+05
    1.1354257353e-02    1.0472463281e+05
    1.1374268681e-02    1.0462192969e+05
    1.1394302361e-02    1.0452716406e+05
    1.1414355598e-02    1.0444877344e+05
    1.1434430256e-02    1.0437737500e+05
    1.1454525404e-02    1.0431584375e+05
    1.1474640109e-02    1.0426615625e+05
    1.1494777165e-02    1.0422230469e+05
    1.1514934711e-02    1.0418359375e+05
    1.1535113677e-02    1.0415971875e+05
    1.1555313133e-02    1.0413494531e+05
    1.1575534008e-02    1.0411432031e+05
    1.1595774442e-02    1.0409777344e+05
    1.1616035365e-02    1.0407034375e+05
    1.1636316776e-02    1.0403921875e+05
    1.1656619608e-02    1.0399935156e+05
    1.1676942930e-02    1.0395918750e+05
    1.1697287671e-02    1.0391900000e+05
    1.1717652902e-02    1.0387896875e+05
    1.1738038622e-02    1.0384280469e+05
    1.1758443899e-02    1.0380897656e+05
    1.1778870597e-02    1.0378325781e+05
    1.1799318716e-02    1.0376102344e+05
    1.1819788255e-02    1.0374878906e+05
    1.1840280145e-02    1.0374983594e+05
    1.1860790662e-02    1.0374746094e+05
    1.1881321669e-02    1.0375727344e+05
    1.1901874095e-02    1.0376258594e+05
    1.1922447011e-02    1.0376528125e+05
    1.1943042278e-02    1.0376509375e+05
    1.1963658035e-02    1.0377013281e+05
    1.1984295212e-02    1.0377077344e+05
    1.2004952878e-02    1.0377260156e+05
    1.2025631964e-02    1.0376941406e+05
    1.2046331540e-02    1.0375978906e+05
    1.2067052536e-02    1.0374791406e+05
    1.2087795883e-02    1.0373246875e+05
    1.2108558789e-02    1.0371765625e+05
    1.2129344046e-02    1.0368964844e+05
    1.2150149792e-02    1.0364880469e+05
    1.2170976959e-02    1.0360416406e+05
    1.2191825546e-02    1.0354396094e+05
    1.2212695554e-02    1.0347928906e+05
    1.2233586982e-02    1.0341127344e+05
    1.2254500762e-02    1.0334091406e+05
    1.2275436893e-02    1.0326896094e+05
    1.2296394445e-02    1.0319396875e+05
    1.2317374349e-02    1.0312039844e+05
    1.2338375673e-02    1.0304033594e+05
    1.2359398417e-02    1.0295433594e+05
    1.2380442582e-02    1.0286435156e+05
    1.2401508167e-02    1.0277633594e+05
    1.2422595173e-02    1.0268513281e+05
    1.2443703599e-02    1.0260722656e+05
    1.2464834377e-02    1.0253544531e+05
    1.2485986575e-02    1.0247996094e+05
    1.2507158332e-02    1.0245114844e+05
    1.2528351508e-02    1.0246346094e+05
    1.2549565174e-02    1.0251058594e+05
    1.2570801191e-02    1.0263027344e+05
    1.2592058629e-02    1.0283458594e+05
    1.2613337487e-02    1.0313596094e+05
    1.2634636834e-02    1.0355743750e+05
    1.2655957602e-02    1.0411928125e+05
    1.2677297927e-02    1.0482346094e+05
    1.2698660605e-02    1.0567324219e+05
    1.2720043771e-02    1.0664250781e+05
    1.2741449289e-02    1.0769292969e+05
    1.2762876227e-02    1.0876539844e+05
    1.2784325518e-02    1.0977764844e+05
    1.2805794366e-02    1.1065643750e+05
    1.2827285565e-02    1.1133791406e+05
    1.2848797254e-02    1.1177135156e+05
    1.2870330364e-02    1.1194253906e+05
    1.2891885825e-02    1.1186978125e+05
    1.2913462706e-02    1.1158419531e+05
    1.2935061008e-02    1.1110871875e+05
    1.2956679799e-02    1.1051441406e+05
    1.2978320010e-02    1.0986228906e+05
    1.2999981642e-02    1.0919371875e+05
    1.3021663763e-02    1.0856821094e+05
    1.3043368235e-02    1.0802547656e+05
    1.3065092266e-02    1.0758830469e+05
    1.3086837716e-02    1.0725247656e+05
    1.3108605519e-02    1.0700052344e+05
    1.3130392879e-02    1.0679172656e+05
    1.3152201660e-02    1.0658491406e+05
    1.3174032792e-02    1.0635042969e+05
    1.3195885345e-02    1.0605212500e+05
    1.3217759319e-02    1.0568853906e+05
    1.3239653781e-02    1.0525902344e+05
    1.3261569664e-02    1.0478642969e+05
    1.3283506967e-02    1.0427652344e+05
    1.3305463828e-02    1.0376739844e+05
    1.3327440247e-02    1.0327577344e+05
    1.3349435292e-02    1.0283043750e+05
    1.3371448033e-02    1.0244635156e+05
    1.3393475674e-02    1.0213225781e+05
    1.3415516354e-02    1.0188580469e+05
    1.3437564485e-02    1.0169638281e+05
    1.3459613547e-02    1.0155559375e+05
    1.3481658883e-02    1.0145188281e+05
    1.3503690250e-02    1.0137389844e+05
    1.3525702059e-02    1.0131747656e+05
    1.3547683135e-02    1.0126941406e+05
    1.3569628820e-02    1.0122672656e+05
    1.3591531664e-02    1.0118375781e+05
    1.3613392599e-02    1.0114052344e+05
    1.3635210693e-02    1.0109960156e+05
    1.3656994328e-02    1.0106721094e+05
    1.3678749092e-02    1.0103083594e+05
    1.3700488023e-02    1.0100408594e+05
    1.3722228818e-02    1.0097500000e+05
    1.3743981719e-02    1.0094627344e+05
    1.3765762560e-02    1.0091902344e+05
    1.3787578791e-02    1.0088609375e+05
    1.3809437864e-02    1.0085202344e+05
    1.3831341639e-02    1.0081536719e+05
    1.3853288256e-02    1.0076714844e+05
    1.3875273056e-02    1.0072825000e+05
    1.3897285797e-02    1.0068528125e+05
    1.3919321820e-02    1.0065389844e+05
    1.3941374607e-02    1.0064097656e+05
    1.3963440433e-02    1.0065753906e+05
    1.3985517435e-02    1.0069933594e+05
    1.4007603750e-02    1.0076414844e+05
    1.4029704034e-02    1.0084503906e+05
    1.4051820152e-02    1.0093659375e+05
    1.4073957689e-02    1.0102321094e+05
    1.4096121304e-02    1.0110503125e+05
    1.4118315652e-02    1.0117569531e+05
    1.4140545391e-02    1.0122390625e+05
    1.4162814245e-02    1.0125436719e+05
    1.4185124077e-02    1.0126389844e+05
    1.4207473956e-02    1.0126491406e+05
    1.4229862019e-02    1.0125869531e+05
    1.4252286404e-02    1.0125453906e+05
    1.4274741523e-02    1.0125538281e+05
    1.4297228307e-02    1.0126696094e+05
    1.4319745824e-02    1.0129091406e+05
    1.4342290349e-02    1.0132578906e+05
    1.4364863746e-02    1.0135868750e+05
    1.4387467876e-02    1.0139458594e+05
    1.4410103671e-02    1.0142619531e+05
    1.4432771131e-02    1.0145732031e+05
    1.4455472119e-02    1.0147537500e+05
    1.4478209428e-02    1.0148866406e+05
    1.4500979334e-02    1.0149388281e+05
    1.4523783699e-02    1.0149736719e+05
    1.4546621591e-02    1.0149252344e+05
    1.4569494873e-02    1.0148589844e+05
    1.4592399821e-02    1.0148583594e+05
    1.4615339227e-02    1.0148291406e+05
    1.4638305642e-02    1.0147941406e+05
    1.4661304653e-02    1.0147649219e+05
    1.4684336260e-02    1.0147309375e+05
    1.4707398601e-02    1.0146878906e+05
    1.4730494469e-02    1.0146506250e+05
    1.4753622934e-02    1.0145746094e+05
    1.4776783995e-02    1.0144871094e+05
    1.4799979515e-02    1.0143528125e+05
    1.4823205769e-02    1.0142282031e+05
    1.4846466482e-02    1.0141516406e+05
    1.4869757928e-02    1.0140725000e+05
    1.4893081971e-02    1.0139703125e+05
    1.4916437678e-02    1.0139177344e+05
    1.4939822257e-02    1.0138608594e+05
    1.4963239431e-02    1.0137577344e+05
    1.4986685477e-02    1.0136039844e+05
    1.5010161325e-02    1.0134358594e+05
    1.5033668838e-02    1.0132375781e+05
    1.5057205223e-02    1.0129780469e+05
    1.5080772340e-02    1.0127291406e+05
    1.5104367398e-02    1.0123833594e+05
    1.5127992257e-02    1.0119522656e+05
    1.5151646920e-02    1.0115978906e+05
    1.5175330453e-02    1.0111858594e+05
    1.5199041925e-02    1.0107983594e+05
    1.5222782269e-02    1.0102872656e+05
    1.5246548690e-02    1.0097992969e+05
    1.5270343982e-02    1.0093297656e+05
    1.5294168144e-02    1.0087771094e+05
    1.5318016522e-02    1.0081943750e+05
    1.5341891907e-02    1.0076742969e+05
    1.5365792438e-02    1.0071205469e+05
    1.5389721841e-02    1.0065071094e+05
    1.5413676389e-02    1.0058518750e+05
    1.5437657945e-02    1.0052147656e+05
    1.5461664647e-02    1.0045108594e+05
    1.5485695563e-02    1.0039028906e+05
    1.5509752557e-02    1.0033138281e+05
    1.5533835627e-02    1.0028016406e+05
    1.5557944775e-02    1.0022216406e+05
    1.5582079068e-02    1.0016031250e+05
    1.5606240369e-02    1.0009916406e+05
    1.5630424023e-02    1.0003410156e+05
    1.5654634684e-02    9.9978031250e+04
    1.5678871423e-02    9.9930460938e+04
    1.5703132376e-02    9.9885437500e+04
    1.5727419406e-02    9.9844398438e+04
    1.5751728788e-02    9.9797523438e+04
    1.5776060522e-02    9.9755382812e+04
    1.5800418332e-02    9.9715875000e+04
    1.5824800357e-02    9.9689218750e+04
    1.5849204734e-02    9.9673492188e+04
    1.5873633325e-02    9.9674539062e+04
    1.5898084268e-02    9.9683648438e+04
    1.5922557563e-02    9.9702789062e+04
    1.5947058797e-02    9.9723187500e+04
    1.5971582383e-02    9.9742976562e+04
    1.5996130183e-02    9.9773757812e+04
    1.6020702198e-02    9.9806406250e+04
    1.6045298427e-02    9.9839351562e+04
    1.6069920734e-02    9.9864570312e+04
    1.6094569117e-02    9.9899476562e+04
    1.6119243577e-02    9.9920773438e+04
    1.6143942252e-02    9.9936773438e+04
    1.6168667004e-02    9.9950148438e+04
    1.6193419695e-02    9.9958976562e+04
    1.6218200326e-02    9.9976031250e+04
    1.6243007034e-02    9.9981968750e+04
    1.6267839819e-02    9.9982273438e+04
    1.6292702407e-02    9.9987601562e+04
    1.6317596659e-02    9.9996914062e+04
    1.6342513263e-02    1.0000453906e+05
    1.6367461532e-02    1.0000252344e+05
    1.6392435879e-02    9.9999523438e+04
    1.6417443752e-02    1.0000506250e+05
    1.6442479566e-02    1.0000639844e+05
    1.6467543319e-02    1.0000712500e+05
    1.6492636874e-02    1.0001056250e+05
    1.6517756507e-02    1.0001369531e+05
    1.6542907804e-02    1.0001439844e+05
    1.6568088904e-02    1.0002071875e+05
    1.6593271866e-02    1.0002260156e+05
    1.6618426889e-02    1.0003334375e+05
    1.6643559560e-02    1.0004150000e+05
    1.6668669879e-02    1.0004991406e+05
    1.6693757847e-02    1.0006753125e+05
    1.6718825325e-02    1.0008646094e+05
    1.6743874177e-02    1.0010462500e+05
    1.6768900678e-02    1.0012302344e+05
    1.6793908551e-02    1.0014491406e+05
    1.6818899661e-02    1.0017368750e+05
    1.6843874007e-02    1.0020709375e+05
    1.6868829727e-02    1.0024275000e+05
    1.6893770546e-02    1.0028435156e+05
    1.6918692738e-02    1.0032349219e+05
    1.6943598166e-02    1.0037046094e+05
    1.6968490556e-02    1.0042152344e+05
    1.6993366182e-02    1.0047264844e+05
    1.7018226907e-02    1.0052953125e+05
    1.7043072730e-02    1.0059181250e+05
    1.7067901790e-02    1.0065260156e+05
    1.7092714086e-02    1.0071700000e+05
    1.7117511481e-02    1.0077437500e+05
    1.7142292112e-02    1.0083057031e+05
    1.7167057842e-02    1.0088072656e+05
    1.7191808671e-02    1.0092547656e+05
    1.7216544598e-02    1.0096627344e+05
    1.7241263762e-02    1.0100308594e+05
    1.7265968025e-02    1.0104046875e+05
    1.7290659249e-02    1.0107341406e+05
    1.7315333709e-02    1.0110164844e+05
    1.7339993268e-02    1.0112763281e+05
    1.7364639789e-02    1.0116159375e+05
    1.7389267683e-02    1.0119178125e+05
    1.7413880676e-02    1.0122305469e+05
    1.7438478768e-02    1.0125616406e+05
    1.7463061959e-02    1.0129427344e+05
    1.7487626523e-02    1.0133435156e+05
    1.7512176186e-02    1.0137722656e+05
    1.7536709085e-02    1.0141947656e+05
    1.7561223358e-02    1.0146164844e+05
    1.7585720867e-02    1.0149965625e+05
    1.7610201612e-02    1.0153837500e+05
    1.7634663731e-02    1.0157196094e+05
    1.7659107223e-02    1.0160847656e+05
    1.7683532089e-02    1.0162980469e+05
    1.7707940191e-02    1.0166064844e+05
    1.7732329667e-02    1.0167871094e+05
    1.7756698653e-02    1.0169481250e+05
    1.7781050876e-02    1.0170739844e+05
    1.7805384472e-02    1.0171882031e+05
    1.7829699442e-02    1.0173455469e+05
    1.7853999510e-02    1.0174396094e+05
    1.7878280953e-02    1.0175466406e+05
    1.7902545631e-02    1.0176436719e+05
    1.7926793545e-02    1.0177385156e+05
    1.7951028422e-02    1.0178174219e+05
    1.7975246534e-02    1.0178860156e+05
    1.7999447882e-02    1.0179144531e+05
    1.8023636192e-02    1.0179519531e+05
    1.8047811463e-02    1.0180216406e+05
    1.8071975559e-02    1.0181466406e+05
    1.8096126616e-02    1.0182633594e+05
    1.8120266497e-02    1.0183700000e+05
    1.8144397065e-02    1.0184493750e+05
    1.8168520182e-02    1.0185933594e+05
    1.8192630261e-02    1.0188266406e+05
    1.8216732889e-02    1.0190396875e+05
    1.8240824342e-02    1.0193115625e+05
    1.8264908344e-02    1.0196250781e+05
    1.8288983032e-02    1.0199844531e+05
    1.8313048407e-02    1.0203814844e+05
    1.8337102607e-02    1.0208208594e+05
    1.8361147493e-02    1.0213908594e+05
    1.8385183066e-02    1.0220618750e+05
    1.8409207463e-02    1.0228536719e+05
    1.8433224410e-02    1.0237375781e+05
    1.8457230181e-02    1.0247536719e+05
    1.8481226638e-02    1.0258275000e+05
    1.8505210057e-02    1.0270585156e+05
    1.8529184163e-02    1.0284122656e+05
    1.8553148955e-02    1.0297550781e+05
    1.8577100709e-02    1.0311241406e+05
    1.8601041287e-02    1.0324214844e+05
    1.8624972552e-02    1.0336522656e+05
    1.8648892641e-02    1.0346552344e+05
    1.8672801554e-02    1.0353989844e+05
    1.8696699291e-02    1.0358792969e+05
    1.8720587716e-02    1.0360277344e+05
    1.8744463101e-02    1.0358671875e+05
    1.8768329173e-02    1.0354035156e+05
    1.8792184070e-02    1.0345688281e+05
    1.8816027790e-02    1.0333944531e+05
    1.8839860335e-02    1.0317990625e+05
    1.8863683566e-02    1.0298087500e+05
    1.8887493759e-02    1.0275778906e+05
    1.8911294639e-02    1.0250991406e+05
    1.8935086206e-02    1.0225466406e+05
    1.8958866596e-02    1.0199857031e+05
    1.8982635811e-02    1.0176544531e+05
    1.9006397575e-02    1.0154968750e+05
    1.9030146301e-02    1.0135768750e+05
    1.9053885713e-02    1.0119869531e+05
    1.9077615812e-02    1.0106763281e+05
    1.9101334736e-02    1.0096478906e+05
    1.9125042483e-02    1.0089510156e+05
    1.9148740917e-02    1.0084886719e+05
    1.9172428176e-02    1.0083041406e+05
    1.9196104258e-02    1.0082503906e+05
    1.9219771028e-02    1.0083368750e+05
    1.9243424758e-02    1.0085046094e+05
    1.9267069176e-02    1.0087752344e+05
    1.9290700555e-02    1.0091071094e+05
    1.9314322621e-02    1.0094728125e+05
    1.9337931648e-02    1.0098372656e+05
    1.9361529499e-02    1.0101580469e+05
    1.9385114312e-02    1.0105303125e+05
    1.9408687949e-02    1.0108141406e+05
    1.9432250410e-02    1.0112040625e+05
    1.9455801696e-02    1.0115618750e+05
    1.9479339942e-02    1.0119183594e+05
    1.9502865151e-02    1.0122633594e+05
    1.9526379183e-02    1.0125614844e+05
    1.9549878314e-02    1.0128775000e+05
    1.9573366269e-02    1.0132050781e+05
    1.9596841186e-02    1.0135132031e+05
    1.9620303065e-02    1.0139325000e+05
    1.9643751904e-02    1.0143297656e+05
    1.9667187706e-02    1.0147958594e+05
    1.9690606743e-02    1.0153009375e+05
    1.9714014605e-02    1.0158894531e+05
    1.9737409428e-02    1.0165235156e+05
    1.9760791212e-02    1.0172225000e+05
    1.9784159958e-02    1.0179531250e+05
    1.9807513803e-02    1.0186661719e+05
    1.9830854610e-02    1.0194321094e+05
    1.9854182377e-02    1.0201202344e+05
    1.9877497107e-02    1.0207414844e+05
    1.9900798798e-02    1.0213174219e+05
    1.9924087450e-02    1.0218008594e+05
    1.9947361201e-02    1.0222828906e+05
    1.9970623776e-02    1.0226786719e+05
    1.9993871450e-02    1.0230641406e+05
    2.0017107949e-02    1.0233772656e+05
    2.0040329546e-02    1.0236652344e+05
    2.0063538104e-02    1.0239194531e+05
    2.0086731762e-02    1.0241147656e+05
    2.0109914243e-02    1.0242683594e+05
    2.0133081824e-02    1.0243658594e+05
    2.0156236365e-02    1.0245283594e+05
    2.0179376006e-02    1.0246150000e+05
    2.0202504471e-02    1.0246300781e+05
    2.0225618035e-02    1.0246146094e+05
    2.0248720422e-02    1.0246389844e+05
    2.0271807909e-02    1.0245727344e+05
    2.0294882357e-02    1.0244496094e+05
    2.0317947492e-02    1.0243908594e+05
    2.0340997726e-02    1.0243071094e+05
    2.0364036784e-02    1.0242972656e+05
    2.0387060940e-02    1.0241803906e+05
    2.0410073921e-02    1.0240342969e+05
    2.0433073863e-02    1.0238724219e+05
    2.0456060767e-02    1.0237880469e+05
    2.0479036495e-02    1.0236825781e+05
    2.0501999184e-02    1.0234740625e+05
    2.0524948835e-02    1.0233294531e+05
    2.0547885448e-02    1.0231466406e+05
    2.0570809022e-02    1.0229586719e+05
    2.0593719557e-02    1.0228390625e+05
    2.0616617054e-02    1.0226615625e+05
    2.0639499649e-02    1.0225121875e+05
    2.0662369207e-02    1.0223647656e+05
    2.0685223863e-02    1.0221509375e+05
    2.0708063617e-02    1.0219275781e+05
    2.0730890334e-02    1.0217410156e+05
    2.0753700286e-02    1.0215546094e+05
    2.0776495337e-02    1.0213078906e+05
    2.0799275488e-02    1.0211459375e+05
    2.0822042599e-02    1.0209331250e+05
    2.0844791085e-02    1.0206791406e+05
    2.0867524669e-02    1.0204839844e+05
    2.0890241489e-02    1.0202427344e+05
    2.0912945271e-02    1.0199330469e+05
    2.0935632288e-02    1.0196562500e+05
    2.0958306268e-02    1.0193172656e+05
    2.0980965346e-02    1.0190039844e+05
    2.1003607661e-02    1.0187452344e+05
    2.1026238799e-02    1.0184628906e+05
    2.1048855036e-02    1.0181012500e+05
    2.1071458235e-02    1.0177318750e+05
    2.1094048396e-02    1.0173197656e+05
    2.1116625518e-02    1.0169117969e+05
    2.1139191464e-02    1.0165486719e+05
    2.1161744371e-02    1.0162308594e+05
    2.1184286103e-02    1.0159233594e+05
    2.1206818521e-02    1.0155803906e+05
    2.1229337901e-02    1.0153356250e+05
    2.1251846105e-02    1.0150668750e+05
    2.1274344996e-02    1.0148163281e+05
    2.1296832711e-02    1.0146514844e+05
    2.1319312975e-02    1.0145593750e+05
    2.1341778338e-02    1.0145450000e+05
    2.1364232525e-02    1.0145344531e+05
    2.1386675537e-02    1.0146342969e+05
    2.1409107372e-02    1.0147540625e+05
    2.1431528032e-02    1.0149308594e+05
    2.1453931928e-02    1.0151415625e+05
    2.1476324648e-02    1.0154785156e+05
    2.1498700604e-02    1.0157736719e+05
    2.1521063522e-02    1.0161146094e+05
    2.1543409675e-02    1.0163890625e+05
    2.1565740928e-02    1.0167686719e+05
    2.1588053554e-02    1.0171250781e+05
    2.1610351279e-02    1.0174286719e+05
    2.1632634103e-02    1.0177989844e+05
    2.1654898301e-02    1.0181132031e+05
    2.1677147597e-02    1.0183785156e+05
    2.1699378267e-02    1.0186408594e+05
    2.1721594036e-02    1.0188339844e+05
    2.1743793041e-02    1.0190200000e+05
    2.1765975282e-02    1.0191864844e+05
    2.1788140759e-02    1.0192978125e+05
    2.1810289472e-02    1.0194414844e+05
    2.1832419559e-02    1.0194915625e+05
    2.1854531020e-02    1.0196127344e+05
    2.1876627579e-02    1.0197071875e+05
    2.1898705512e-02    1.0197572656e+05
    2.1920768544e-02    1.0197847656e+05
    2.1942811087e-02    1.0198139844e+05
    2.1964838728e-02    1.0198427344e+05
    2.1986849606e-02    1.0198503906e+05
    2.2008845583e-02    1.0198231250e+05
    2.2030822933e-02    1.0198302344e+05
    2.2052785382e-02    1.0197428906e+05
    2.2074732929e-02    1.0196975781e+05
    2.2096665576e-02    1.0196471094e+05
    2.2118583322e-02    1.0195271094e+05
    2.2140489891e-02    1.0194003125e+05
    2.2162377834e-02    1.0192962500e+05
    2.2184254602e-02    1.0192137500e+05
    2.2206118330e-02    1.0190483594e+05
    2.2227969021e-02    1.0188702344e+05
    2.2249806672e-02    1.0187262500e+05
    2.2271629423e-02    1.0186316406e+05
    2.2293440998e-02    1.0184719531e+05
    2.2315241396e-02    1.0183265625e+05
    2.2337028757e-02    1.0181621875e+05
    2.2358803079e-02    1.0180567969e+05
    2.2380566224e-02    1.0179546094e+05
    2.2402318195e-02    1.0178214844e+05
    2.2424057126e-02    1.0177532031e+05
    2.2445784882e-02    1.0177096875e+05
    2.2467501462e-02    1.0176325000e+05
    2.2489206865e-02    1.0176077344e+05
    2.2510899231e-02    1.0175880469e+05
    2.2532582283e-02    1.0176041406e+05
    2.2554252297e-02    1.0175760156e+05
    2.2575911134e-02    1.0175202344e+05
    2.2597560659e-02    1.0174696875e+05
    2.2619199008e-02    1.0174285156e+05
    2.2640828043e-02    1.0174785156e+05
    2.2662445903e-02    1.0174480469e+05
    2.2684050724e-02    1.0174888281e+05
    2.2705646232e-02    1.0174583594e+05
    2.2727232426e-02    1.0173691406e+05
    2.2748809308e-02    1.0173306250e+05
    2.2770375013e-02    1.0172864844e+05
    2.2791929543e-02    1.0172474219e+05
    2.2813472897e-02    1.0172072656e+05
    2.2835006937e-02    1.0171652344e+05
    2.2856531665e-02    1.0171347656e+05
    2.2878047079e-02    1.0171022656e+05
    2.2899549454e-02    1.0169871875e+05
    2.2921044379e-02    1.0169303906e+05
    2.2942528129e-02    1.0168361719e+05
    2.2964000702e-02    1.0167953906e+05
    2.2985465825e-02    1.0167959375e+05
    2.3006917909e-02    1.0167442969e+05
    2.3028360680e-02    1.0166680469e+05
    2.3049792275e-02    1.0165446094e+05
    2.3071214557e-02    1.0164978906e+05
    2.3092625663e-02    1.0163992969e+05
    2.3114029318e-02    1.0162964844e+05
    2.3135419935e-02    1.0162167969e+05
    2.3156799376e-02    1.0160516406e+05
    2.3178169504e-02    1.0159639844e+05
    2.3199530318e-02    1.0158822656e+05
    2.3220879957e-02    1.0157997656e+05
    2.3242218420e-02    1.0156746875e+05
    2.3263547570e-02    1.0155950781e+05
    2.3284865543e-02    1.0155043750e+05
    2.3306174204e-02    1.0154112500e+05
    2.3327469826e-02    1.0153674219e+05
    2.3348756135e-02    1.0152858594e+05
    2.3370031267e-02    1.0151122656e+05
    2.3391297087e-02    1.0150247656e+05
    2.3412553594e-02    1.0150143750e+05
    2.3433798924e-02    1.0149577344e+05
    2.3455033079e-02    1.0149375781e+05
    2.3476256058e-02    1.0149291406e+05
    2.3497469723e-02    1.0149690625e+05
    2.3518672213e-02    1.0149325000e+05
    2.3539865389e-02    1.0148852344e+05
    2.3561049253e-02    1.0148353906e+05
    2.3582221940e-02    1.0147350781e+05
    2.3603385314e-02    1.0146940625e+05
    2.3624535650e-02    1.0147160156e+05
    2.3645676672e-02    1.0146992969e+05
    2.3666808382e-02    1.0147746094e+05
    2.3687927052e-02    1.0147630469e+05
    2.3709038273e-02    1.0147666406e+05
    2.3730138317e-02    1.0147738281e+05
    2.3751227185e-02    1.0147796875e+05
    2.3772306740e-02    1.0148460156e+05
    2.3793375120e-02    1.0148627344e+05
    2.3814432323e-02    1.0149908594e+05
    2.3835480213e-02    1.0150442969e+05
    2.3856516927e-02    1.0151484375e+05
    2.3877544329e-02    1.0152671094e+05
    2.3898560554e-02    1.0153892969e+05
    2.3919565603e-02    1.0155100000e+05
    2.3940561339e-02    1.0156367969e+05
    2.3961545900e-02    1.0157037500e+05
    2.3982519284e-02    1.0158275000e+05
    2.4003483355e-02    1.0159591406e+05
    2.4024436250e-02    1.0160371875e+05
    2.4045377970e-02    1.0161602344e+05
    2.4066310376e-02    1.0162378125e+05
    2.4087233469e-02    1.0163269531e+05
    2.4108145386e-02    1.0163639844e+05
    2.4129044265e-02    1.0164271094e+05
    2.4149935693e-02    1.0164952344e+05
    2.4170814082e-02    1.0166092969e+05
    2.4191683158e-02    1.0166403906e+05
    2.4212542921e-02    1.0166740625e+05
    2.4233391508e-02    1.0166991406e+05
    2.4254228920e-02    1.0167400781e+05
    2.4275057018e-02    1.0167606250e+05
    2.4295873940e-02    1.0167938281e+05
    2.4316681549e-02    1.0168514844e+05
    2.4337477982e-02    1.0168416406e+05
    2.4358265102e-02    1.0168385156e+05
    2.4379042909e-02    1.0168335156e+05
    2.4399809539e-02    1.0168837500e+05
    2.4420566857e-02    1.0168889844e+05
    2.4441312999e-02    1.0169914844e+05
    2.4462047964e-02    1.0170077344e+05
    2.4482775480e-02    1.0169808594e+05
    2.4503491819e-02    1.0170227344e+05
    2.4524198845e-02    1.0170775781e+05
    2.4544894695e-02    1.0171528906e+05
    2.4565581232e-02    1.0172714844e+05
    2.4586258456e-02    1.0172611719e+05
    2.4606924504e-02    1.0173528906e+05
    2.4627581239e-02    1.0173567969e+05
    2.4648228660e-02    1.0173949219e+05
    2.4668866768e-02    1.0173353906e+05
    2.4689495564e-02    1.0172628125e+05
    2.4710113183e-02    1.0171799219e+05
    2.4730721489e-02    1.0170799219e+05
    2.4751318619e-02    1.0168717969e+05
    2.4771906435e-02    1.0165984375e+05
    2.4792486802e-02    1.0163600000e+05
    2.4813055992e-02    1.0160547656e+05
    2.4833614007e-02    1.0157669531e+05
    2.4854162708e-02    1.0154155469e+05
    2.4874702096e-02    1.0151188281e+05
    2.4895232171e-02    1.0148084375e+05
    2.4915752932e-02    1.0145493750e+05
    2.4936262518e-02    1.0142765625e+05
    2.4956764653e-02    1.0141091406e+05
    2.4977253750e-02    1.0139558594e+05
    2.4997735396e-02    1.0139414844e+05
    2.5018205866e-02    1.0139392969e+05
    2.5038668886e-02    1.0139906250e+05
    2.5059120730e-02    1.0140839844e+05
    2.5079563260e-02    1.0142702344e+05
    2.5099996477e-02    1.0144728906e+05
    2.5120420381e-02    1.0147653906e+05
    2.5140833110e-02    1.0149499219e+05
    2.5161236525e-02    1.0152678906e+05
    2.5181630626e-02    1.0155127344e+05
    2.5202017277e-02    1.0158015625e+05
    2.5222390890e-02    1.0161052344e+05
    2.5242757052e-02    1.0163239844e+05
    2.5263112038e-02    1.0166147656e+05
    2.5283459574e-02    1.0168916406e+05
    2.5303795934e-02    1.0171383594e+05
    2.5324124843e-02    1.0173708594e+05
    2.5344440714e-02    1.0175555469e+05
    2.5364749134e-02    1.0177927344e+05
    2.5385048240e-02    1.0179935156e+05
    2.5405339897e-02    1.0181660156e+05
    2.5425618514e-02    1.0182988281e+05
    2.5445887819e-02    1.0184810156e+05
    2.5466147810e-02    1.0186632031e+05
    2.5486400351e-02    1.0188283594e+05
    2.5506639853e-02    1.0189914844e+05
    2.5526873767e-02    1.0191464844e+05
    2.5547094643e-02    1.0193025781e+05
    2.5567308068e-02    1.0193475781e+05
    2.5587510318e-02    1.0193909375e+05
    2.5607703254e-02    1.0195315625e+05
    2.5627886876e-02    1.0196561719e+05
    2.5648061186e-02    1.0196889844e+05
    2.5668226182e-02    1.0198066406e+05
    2.5688380003e-02    1.0198152344e+05
    2.5708526373e-02    1.0197749219e+05
    2.5728661567e-02    1.0197577344e+05
    2.5748789310e-02    1.0197785156e+05
    2.5768904015e-02    1.0197567969e+05
    2.5789011270e-02    1.0197491406e+05
    2.5809109211e-02    1.0197327344e+05
    2.5829195976e-02    1.0196605469e+05
    2.5849273428e-02    1.0195875000e+05
    2.5869343430e-02    1.0195156250e+05
    2.5889402255e-02    1.0194921094e+05
    2.5909451768e-02    1.0194471094e+05
    2.5929493830e-02    1.0193489844e+05
    2.5949522853e-02    1.0193428906e+05
    2.5969544426e-02    1.0192284375e+05
    2.5989556685e-02    1.0192096094e+05
    2.6009559631e-02    1.0190812500e+05
    2.6029553264e-02    1.0189971094e+05
    2.6049537584e-02    1.0189110156e+05
    2.6069512591e-02    1.0188728906e+05
    2.6089478284e-02    1.0188228906e+05
    2.6109432802e-02    1.0187909375e+05
    2.6129379869e-02    1.0187588281e+05
    2.6149315760e-02    1.0187078125e+05
    2.6169244200e-02    1.0186319531e+05
    2.6189163327e-02    1.0185628906e+05
    2.6209073141e-02    1.0185116406e+05
    2.6228975505e-02    1.0184433594e+05
    2.6248866692e-02    1.0184327344e+05
    2.6268748567e-02    1.0184733594e+05
    2.6288621128e-02    1.0184497656e+05
    2.6308484375e-02    1.0184234375e+05
    2.6328338310e-02    1.0183977344e+05
    2.6348184794e-02    1.0183717969e+05
    2.6368021965e-02    1.0183535156e+05
    2.6387847960e-02    1.0183302344e+05
    2.6407664642e-02    1.0183133594e+05
    2.6427472010e-02    1.0182917969e+05
    2.6447271928e-02    1.0182714844e+05
    2.6467062533e-02    1.0183272656e+05
    2.6486843824e-02    1.0183356250e+05
    2.6506617665e-02    1.0182700781e+05
    2.6526380330e-02    1.0182716406e+05
    2.6546133682e-02    1.0182158594e+05
    2.6565877721e-02    1.0182147656e+05
    2.6585612446e-02    1.0181216406e+05
    2.6605339721e-02    1.0181569531e+05
    2.6625057682e-02    1.0181710156e+05
    2.6644766331e-02    1.0181549219e+05
    2.6664465666e-02    1.0182014844e+05
    2.6684155688e-02    1.0182449219e+05
    2.6703836396e-02    1.0182878906e+05
    2.6723509654e-02    1.0182733594e+05
    2.6743173599e-02    1.0182465625e+05
    2.6762828231e-02    1.0182372656e+05
    2.6782475412e-02    1.0182591406e+05
    2.6802113280e-02    1.0183228906e+05
    2.6821739972e-02    1.0183221094e+05
    2.6841359213e-02    1.0183427344e+05
    2.6860967278e-02    1.0184352344e+05
    2.6880569756e-02    1.0184553906e+05
    2.6900164783e-02    1.0184639844e+05
    2.6919748634e-02    1.0184725000e+05
    2.6939325035e-02    1.0184925781e+05
    2.6958892122e-02    1.0185033594e+05
    2.6978449896e-02    1.0185452344e+05
    2.6997998357e-02    1.0186327344e+05
    2.7017539367e-02    1.0186221094e+05
    2.7037071064e-02    1.0185716406e+05
    2.7056595311e-02    1.0186807031e+05
    2.7076110244e-02    1.0186871094e+05
    2.7095617726e-02    1.0186785156e+05
    2.7115115896e-02    1.0186121094e+05
    2.7134604752e-02    1.0186171094e+05
    2.7154086158e-02    1.0186112500e+05
    2.7173558250e-02    1.0187246875e+05
    2.7193021029e-02    1.0187371094e+05
    2.7212476358e-02    1.0187655469e+05
    2.7231922373e-02    1.0187742969e+05
    2.7251357213e-02    1.0187689844e+05
    2.7270786464e-02    1.0186866406e+05
    2.7290204540e-02    1.0187530469e+05
    2.7309613302e-02    1.0187728906e+05
    2.7329014614e-02    1.0187814844e+05
    2.7348404750e-02    1.0187200781e+05
    2.7367785573e-02    1.0187177344e+05
    2.7387158945e-02    1.0188085156e+05
    2.7406521142e-02    1.0188263281e+05
    2.7425874025e-02    1.0188337500e+05
    2.7445219457e-02    1.0188477344e+05
    2.7464553714e-02    1.0188621094e+05
    2.7483878657e-02    1.0188902344e+05
    2.7503194287e-02    1.0189096094e+05
    2.7522502467e-02    1.0189577344e+05
    2.7541799471e-02    1.0189978125e+05
    2.7561087161e-02    1.0189753125e+05
    2.7580365539e-02    1.0189940625e+05
    2.7599634603e-02    1.0191128125e+05
    2.7618894354e-02    1.0191362500e+05
    2.7638144791e-02    1.0191107031e+05
    2.7657385916e-02    1.0190780469e+05
    2.7676619589e-02    1.0190941406e+05
    2.7695843950e-02    1.0191103125e+05
    2.7715058997e-02    1.0191389844e+05
    2.7734262869e-02    1.0191527344e+05
    2.7753459290e-02    1.0192416406e+05
    2.7772648260e-02    1.0191991406e+05
    2.7791827917e-02    1.0192046875e+05
    2.7810998261e-02    1.0192228906e+05
    2.7830159292e-02    1.0191403906e+05
    2.7849311009e-02    1.0191474219e+05
    2.7868455276e-02    1.0191550781e+05
    2.7887590230e-02    1.0191893750e+05
    2.7906717733e-02    1.0192714844e+05
    2.7925835922e-02    1.0192940625e+05
    2.7944946662e-02    1.0192982031e+05
    2.7964048088e-02    1.0193215625e+05
    2.7983140200e-02    1.0192392969e+05
    2.8002224863e-02    1.0192569531e+05
    2.8021300212e-02    1.0192533594e+05
    2.8040368110e-02    1.0192668750e+05
    2.8059426695e-02    1.0193625781e+05
    2.8078475967e-02    1.0193722656e+05
    2.8097519651e-02    1.0192884375e+05
    2.8116554022e-02    1.0192949219e+05
    2.8135580942e-02    1.0193080469e+05
    2.8154598549e-02    1.0193238281e+05
    2.8173606843e-02    1.0193828125e+05
    2.8192607686e-02    1.0194291406e+05
    2.8211599216e-02    1.0194339844e+05
    2.8230583295e-02    1.0194850000e+05
    2.8249559924e-02    1.0194990625e+05
    2.8268527240e-02    1.0194075781e+05
    2.8287487105e-02    1.0194657031e+05
    2.8306435794e-02    1.0195285156e+05
    2.8325378895e-02    1.0194608594e+05
    2.8344312683e-02    1.0195343750e+05
    2.8363237157e-02    1.0195693750e+05
    2.8382156044e-02    1.0195355469e+05
    2.8401065618e-02    1.0195508594e+05
    2.8419965878e-02    1.0196021875e+05
    2.8438858688e-02    1.0195678906e+05
    2.8457742184e-02    1.0195253906e+05
    2.8476616368e-02    1.0195591406e+05
    2.8495483100e-02    1.0195697656e+05
    2.8514338657e-02    1.0195631250e+05
    2.8533160686e-02    1.0195749219e+05
    2.8551930562e-02    1.0196796094e+05
    2.8570635244e-02    1.0196367969e+05
    2.8589271009e-02    1.0196257031e+05
    2.8607837856e-02    1.0196246875e+05
    2.8626350686e-02    1.0196268750e+05
    2.8644818813e-02    1.0196281250e+05
    2.8663259000e-02    1.0196278906e+05
    2.8681686148e-02    1.0195877344e+05
    2.8700113297e-02    1.0195960156e+05
    2.8718546033e-02    1.0195986719e+05
    2.8736986220e-02    1.0195535156e+05
    2.8755431995e-02    1.0195544531e+05
    2.8773877770e-02    1.0195441406e+05
    2.8792314231e-02    1.0195390625e+05
    2.8810730204e-02    1.0195389844e+05
    2.8829116374e-02    1.0195378906e+05
    2.8847465292e-02    1.0195416406e+05
    2.8865773231e-02    1.0195435156e+05
    2.8884036466e-02    1.0195440625e+05
    2.8902258724e-02    1.0195371875e+05
    2.8920443729e-02    1.0195072656e+05
    2.8938598931e-02    1.0194999219e+05
    2.8956729919e-02    1.0194935156e+05
    2.8974846005e-02    1.0195121875e+05
    2.8992949054e-02    1.0195227344e+05
    2.9011042789e-02    1.0195236719e+05
    2.9029129073e-02    1.0195325000e+05
    2.9047204182e-02    1.0195769531e+05
    2.9065268114e-02    1.0196422656e+05
    2.9083315283e-02    1.0196431250e+05
    2.9101338238e-02    1.0196556250e+05
    2.9119335115e-02    1.0196741406e+05
    2.9137304053e-02    1.0196717969e+05
    2.9155241325e-02    1.0196830469e+05
    2.9173148796e-02    1.0196960156e+05
    2.9191024601e-02    1.0197234375e+05
    2.9208874330e-02    1.0197911719e+05
    2.9226697981e-02    1.0198150000e+05
    2.9244501144e-02    1.0198683594e+05
    2.9262285680e-02    1.0198292969e+05
    2.9280053452e-02    1.0198446094e+05
    2.9297806323e-02    1.0198535156e+05
    2.9315544292e-02    1.0198388281e+05
    2.9333265498e-02    1.0198238281e+05
    2.9350971803e-02    1.0198778906e+05
    2.9368655756e-02    1.0199396875e+05
    2.9386319220e-02    1.0199314844e+05
    2.9403960332e-02    1.0198753125e+05
    2.9421577230e-02    1.0198764844e+05
    2.9439168051e-02    1.0199350781e+05
    2.9456734657e-02    1.0198883594e+05
    2.9474277049e-02    1.0199238281e+05
    2.9491795227e-02    1.0199059375e+05
    2.9509292915e-02    1.0199227344e+05
    2.9526771978e-02    1.0199346094e+05
    2.9544232413e-02    1.0199346094e+05
    2.9561674222e-02    1.0199564844e+05
    2.9579099268e-02    1.0199615625e+05
    2.9596509412e-02    1.0199664844e+05
    2.9613900930e-02    1.0199885156e+05
    2.9631273821e-02    1.0200003906e+05
    2.9648626223e-02    1.0200127344e+05
    2.9665958136e-02    1.0200250000e+05
    2.9683271423e-02    1.0200491406e+05
    2.9700560495e-02    1.0200750781e+05
    2.9717829078e-02    1.0201228125e+05
    2.9735075310e-02    1.0201144531e+05
    2.9752301052e-02    1.0201744531e+05
    2.9769508168e-02    1.0202022656e+05
    2.9786696658e-02    1.0201985156e+05
    2.9803866521e-02    1.0202449219e+05
    2.9821017757e-02    1.0202288281e+05
    2.9838152230e-02    1.0203393750e+05
    2.9855269939e-02    1.0203590625e+05
    2.9872370884e-02    1.0203044531e+05
    2.9889453202e-02    1.0203237500e+05
    2.9906518757e-02    1.0204144531e+05
    2.9923565686e-02    1.0203975781e+05
    2.9940593988e-02    1.0204452344e+05
    2.9957601801e-02    1.0204703125e+05
    2.9974590987e-02    1.0204205469e+05
    2.9991561547e-02    1.0205244531e+05
    3.0008511618e-02    1.0205428906e+05
    3.0025444925e-02    1.0205039844e+05
    3.0042361468e-02    1.0204752344e+05
    3.0059259385e-02    1.0204858594e+05
    3.0076142401e-02    1.0204971875e+05
    3.0093006790e-02    1.0205033594e+05
    3.0109854415e-02    1.0205674219e+05
    3.0126683414e-02    1.0205430469e+05
    3.0143497512e-02    1.0205577344e+05
    3.0160292983e-02    1.0205650000e+05
    3.0177071691e-02    1.0205694531e+05
    3.0193833634e-02    1.0205838281e+05
    3.0210576952e-02    1.0205347656e+05
    3.0227303505e-02    1.0205452344e+05
    3.0244011432e-02    1.0205500000e+05
    3.0260702595e-02    1.0205946094e+05
    3.0277376994e-02    1.0206003906e+05
    3.0294034630e-02    1.0205310156e+05
    3.0310675502e-02    1.0205364844e+05
    3.0327299610e-02    1.0205713281e+05
    3.0343905091e-02    1.0206235156e+05
    3.0360495672e-02    1.0205778906e+05
    3.0377071351e-02    1.0206374219e+05
    3.0393628404e-02    1.0206397656e+05
    3.0410168692e-02    1.0206085156e+05
    3.0426690355e-02    1.0205787500e+05
    3.0443195254e-02    1.0205830469e+05
    3.0459685251e-02    1.0205806250e+05
    3.0476156622e-02    1.0205896094e+05
    3.0492611229e-02    1.0205862500e+05
    3.0509050936e-02    1.0205982031e+05
    3.0525473878e-02    1.0205446875e+05
    3.0541881919e-02    1.0205425000e+05
    3.0558273196e-02    1.0205047656e+05
    3.0574647710e-02    1.0204985156e+05
    3.0591005459e-02    1.0204896094e+05
    3.0607348308e-02    1.0203789844e+05
    3.0623674393e-02    1.0203562500e+05
    3.0639985576e-02    1.0202842969e+05
    3.0656279996e-02    1.0202125000e+05
    3.0672557652e-02    1.0201847656e+05
    3.0688818544e-02    1.0201253125e+05
    3.0705062672e-02    1.0200746094e+05
    3.0721291900e-02    1.0200008594e+05
    3.0737506226e-02    1.0199642969e+05
    3.0753703788e-02    1.0199269531e+05
    3.0769886449e-02    1.0198839844e+05
    3.0786054209e-02    1.0198410156e+05
    3.0802207068e-02    1.0198049219e+05
    3.0818343163e-02    1.0197696094e+05
    3.0834466219e-02    1.0197484375e+05
    3.0850572512e-02    1.0198103906e+05
    3.0866663903e-02    1.0197839844e+05
    3.0882738531e-02    1.0197608594e+05
    3.0898798257e-02    1.0197528906e+05
    3.0914843082e-02    1.0198303906e+05
    3.0930871144e-02    1.0199140625e+05
    3.0946886167e-02    1.0199128906e+05
    3.0962884426e-02    1.0200100000e+05
    3.0978867784e-02    1.0200687500e+05
    3.0994836241e-02    1.0201309375e+05
    3.1010789797e-02    1.0202452344e+05
    3.1026728451e-02    1.0202775781e+05
    3.1042650342e-02    1.0203010156e+05
    3.1058559194e-02    1.0204025000e+05
    3.1074455008e-02    1.0204660156e+05
    3.1090334058e-02    1.0205090625e+05
    3.1106200069e-02    1.0205485156e+05
    3.1122051179e-02    1.0206833594e+05
    3.1137887388e-02    1.0207288281e+05
    3.1153710559e-02    1.0207752344e+05
    3.1169516966e-02    1.0208163281e+05
    3.1185310334e-02    1.0208631250e+05
    3.1201090664e-02    1.0209089844e+05
    3.1216854230e-02    1.0209542969e+05
    3.1232602894e-02    1.0209115625e+05
    3.1248336658e-02    1.0209539844e+05
    3.1264055520e-02    1.0209961719e+05
    3.1279761344e-02    1.0210377344e+05
    3.1295452267e-02    1.0210835156e+05
    3.1311132014e-02    1.0211161719e+05
    3.1326796860e-02    1.0211509375e+05
    3.1342446804e-02    1.0210900000e+05
    3.1358085573e-02    1.0211177344e+05
    3.1373709440e-02    1.0211414844e+05
    3.1389318407e-02    1.0210707031e+05
    3.1404916197e-02    1.0210833594e+05
    3.1420499086e-02    1.0211060156e+05
    3.1436067075e-02    1.0211217969e+05
    3.1451620162e-02    1.0211247656e+05
    3.1467158347e-02    1.0211493750e+05
    3.1482685357e-02    1.0211084375e+05
    3.1498193741e-02    1.0210902344e+05
    3.1513694674e-02    1.0210774219e+05
    3.1529176980e-02    1.0210867969e+05
    3.1544648111e-02    1.0211443750e+05
    3.1560108066e-02    1.0211553906e+05
    3.1575553119e-02    1.0211315625e+05
    3.1590986997e-02    1.0211666406e+05
    3.1606405973e-02    1.0212033594e+05
    3.1621813774e-02    1.0211703906e+05
    3.1637206674e-02    1.0212299219e+05
    3.1652588397e-02    1.0211915625e+05
    3.1667951494e-02    1.0211972656e+05
    3.1683307141e-02    1.0212003906e+05
    3.1698647887e-02    1.0211992969e+05
    3.1713977456e-02    1.0211127344e+05
    3.1729292125e-02    1.0211117969e+05
    3.1744595617e-02    1.0210080469e+05
    3.1759884208e-02    1.0209866406e+05
    3.1775161624e-02    1.0209621094e+05
    3.1790427864e-02    1.0208741406e+05
    3.1805675477e-02    1.0208300000e+05
    3.1820915639e-02    1.0208775000e+05
    3.1836140901e-02    1.0208810156e+05
    3.1851354986e-02    1.0207682031e+05
    3.1866557896e-02    1.0207462500e+05
    3.1881745905e-02    1.0207253906e+05
    3.1896922737e-02    1.0207862500e+05
    3.1912088394e-02    1.0207678906e+05
    3.1927239150e-02    1.0207499219e+05
    3.1942378730e-02    1.0207321094e+05
    3.1957507133e-02    1.0207139844e+05
    3.1972620636e-02    1.0206138281e+05
    3.1987726688e-02    1.0205821094e+05
    3.2002814114e-02    1.0206321875e+05
    3.2017890364e-02    1.0206358594e+05
    3.2032959163e-02    1.0206175781e+05
    3.2048013061e-02    1.0205991406e+05
    3.2063052058e-02    1.0205860156e+05
    3.2078083605e-02    1.0205609375e+05
    3.2093103975e-02    1.0204556250e+05
    3.2108109444e-02    1.0204530469e+05
    3.2123107463e-02    1.0205158594e+05
    3.2138090581e-02    1.0204875781e+05
    3.2153062522e-02    1.0204763281e+05
    3.2168023288e-02    1.0204533594e+05
    3.2182972878e-02    1.0204350781e+05
    3.2197911292e-02    1.0204046875e+05
    3.2212834805e-02    1.0203622656e+05
    3.2227750868e-02    1.0203487500e+05
    3.2242652029e-02    1.0203475000e+05
    3.2257542014e-02    1.0203312500e+05
    3.2272424549e-02    1.0203185156e+05
    3.2287292182e-02    1.0203436719e+05
    3.2302148640e-02    1.0204053906e+05
    3.2316997647e-02    1.0204006250e+05
    3.2331831753e-02    1.0203968750e+05
    3.2346658409e-02    1.0203881250e+05
    3.2361470163e-02    1.0203794531e+05
    3.2376270741e-02    1.0203772656e+05
    3.2391063869e-02    1.0203740625e+05
    3.2405842096e-02    1.0203921094e+05
    3.2420612872e-02    1.0202888281e+05
    3.2435368747e-02    1.0202824219e+05
    3.2450113446e-02    1.0203460156e+05
    3.2464850694e-02    1.0203650000e+05
    3.2479573041e-02    1.0203578906e+05
    3.2494287938e-02    1.0203597656e+05
    3.2508991659e-02    1.0204616406e+05
    3.2523684204e-02    1.0204741406e+05
    3.2538365573e-02    1.0204814844e+05
    3.2553035766e-02    1.0204881250e+05
    3.2567698509e-02    1.0204347656e+05
    3.2582346350e-02    1.0204159375e+05
    3.2596986741e-02    1.0204300000e+05
    3.2611619681e-02    1.0204221875e+05
    3.2626237720e-02    1.0204385156e+05
    3.2640848309e-02    1.0205453906e+05
    3.2655447721e-02    1.0205521094e+05
    3.2670035958e-02    1.0205662500e+05
    3.2684613019e-02    1.0205918750e+05
    3.2699178904e-02    1.0206053906e+05
    3.2713737339e-02    1.0206166406e+05
    3.2728284597e-02    1.0205791406e+05
    3.2742820680e-02    1.0205472656e+05
    3.2757349312e-02    1.0205489844e+05
    3.2771866769e-02    1.0205564844e+05
    3.2786373049e-02    1.0205875000e+05
    3.2800871879e-02    1.0205713281e+05
    3.2815355808e-02    1.0206010156e+05
    3.2829832286e-02    1.0205853906e+05
    3.2844301313e-02    1.0205932031e+05
    3.2858755440e-02    1.0206134375e+05
    3.2873202115e-02    1.0206328906e+05
    3.2887637615e-02    1.0206628906e+05
    3.2902065665e-02    1.0206532031e+05
    3.2916482538e-02    1.0206428125e+05
    3.2930891961e-02    1.0206481250e+05
    3.2945290208e-02    1.0206408594e+05
    3.2959677279e-02    1.0206446094e+05
    3.2974056900e-02    1.0206478906e+05
    3.2988425344e-02    1.0206453125e+05
    3.3002786338e-02    1.0206546094e+05
    3.3017136157e-02    1.0206572656e+05
    3.3031478524e-02    1.0206478906e+05
    3.3045809716e-02    1.0206491406e+05
    3.3060129732e-02    1.0206383594e+05
    3.3074442297e-02    1.0206383594e+05
    3.3088747412e-02    1.0206491406e+05
    3.3103041351e-02    1.0206487500e+05
    3.3117324114e-02    1.0206366406e+05
    3.3131599426e-02    1.0206364844e+05
    3.3145863563e-02    1.0206364844e+05
    3.3160120249e-02    1.0206481250e+05
    3.3174365759e-02    1.0206483594e+05
    3.3188603818e-02    1.0206483594e+05
    3.3202830702e-02    1.0206472656e+05
    3.3217050135e-02    1.0205981250e+05
    3.3231258392e-02    1.0205372656e+05
    3.3245459199e-02    1.0205378906e+05
    3.3259648830e-02    1.0205846875e+05
    3.3273831010e-02    1.0206265625e+05
    3.3288005739e-02    1.0206171094e+05
    3.3302169293e-02    1.0205622656e+05
    3.3316325396e-02    1.0205113281e+05
    3.3330474049e-02    1.0205062500e+05
    3.3344611526e-02    1.0205009375e+05
    3.3358741552e-02    1.0204952344e+05
    3.3372864127e-02    1.0204881250e+05
    3.3386975527e-02    1.0204682031e+05
    3.3401079476e-02    1.0204472656e+05
    3.3415172249e-02    1.0204131250e+05
    3.3429257572e-02    1.0203528125e+05
    3.3443335444e-02    1.0203264844e+05
    3.3457405865e-02    1.0203224219e+05
    3.3471468836e-02    1.0202953906e+05
    3.3485524356e-02    1.0203021094e+05
    3.3499568701e-02    1.0202530469e+05
    3.3513605595e-02    1.0202369531e+05
    3.3527631313e-02    1.0202266406e+05
    3.3541653305e-02    1.0202147656e+05
    3.3555664122e-02    1.0201960156e+05
    3.3569667488e-02    1.0201299219e+05
    3.3583663404e-02    1.0200606250e+05
    3.3597648144e-02    1.0200353125e+05
    3.3611625433e-02    1.0199985156e+05
    3.3625595272e-02    1.0199837500e+05
    3.3639557660e-02    1.0199453906e+05
    3.3653512597e-02    1.0199180469e+05
    3.3667460084e-02    1.0198896094e+05
    3.3681396395e-02    1.0198484375e+05
    3.3695328981e-02    1.0198285156e+05
    3.3709254116e-02    1.0197953125e+05
    3.3723168075e-02    1.0197156250e+05
    3.3737078309e-02    1.0196328906e+05
    3.3750977367e-02    1.0195969531e+05
    3.3764872700e-02    1.0196071094e+05
    3.3778760582e-02    1.0195743750e+05
    3.3792637289e-02    1.0196024219e+05
    3.3806510270e-02    1.0195690625e+05
    3.3820372075e-02    1.0195485156e+05
    3.3834230155e-02    1.0195227344e+05
    3.3848077059e-02    1.0194969531e+05
    3.3861916512e-02    1.0194716406e+05
    3.3875752240e-02    1.0194461719e+05
    3.3889576793e-02    1.0194215625e+05
    3.3903393894e-02    1.0193983594e+05
    3.3917203546e-02    1.0194325781e+05
    3.3931009471e-02    1.0194134375e+05
    3.3944804221e-02    1.0194547656e+05
    3.3958595246e-02    1.0194453906e+05
    3.3972378820e-02    1.0194259375e+05
    3.3986151218e-02    1.0194083594e+05
    3.3999919891e-02    1.0194033594e+05
    3.4013681114e-02    1.0193947656e+05
    3.4027434886e-02    1.0194553906e+05
    3.4041177481e-02    1.0194838281e+05
    3.4054916352e-02    1.0194771094e+05
    3.4068647772e-02    1.0193781250e+05
    3.4082375467e-02    1.0193697656e+05
    3.4096091986e-02    1.0194089844e+05
    3.4109804779e-02    1.0194466406e+05
    3.4123510122e-02    1.0194517969e+05
    3.4137208015e-02    1.0193989844e+05
    3.4150898457e-02    1.0193818750e+05
    3.4164581448e-02    1.0194239844e+05
    3.4178260714e-02    1.0194328906e+05
    3.4191932529e-02    1.0194312500e+05
    3.4205596894e-02    1.0194249219e+05
    3.4219253808e-02    1.0194296094e+05
    3.4232903272e-02    1.0194288281e+05
    3.4246545285e-02    1.0194171094e+05
    3.4260183573e-02    1.0194278125e+05
    3.4273810685e-02    1.0194268750e+05
    3.4287434071e-02    1.0194250000e+05
    3.4301050007e-02    1.0194102344e+05
    3.4314658493e-02    1.0193834375e+05
    3.4328263253e-02    1.0193553906e+05
    3.4341860563e-02    1.0192906250e+05
    3.4355450422e-02    1.0192952344e+05
    3.4369036555e-02    1.0192892969e+05
    3.4382611513e-02    1.0193524219e+05
    3.4396182746e-02    1.0193360156e+05
    3.4409742802e-02    1.0192806250e+05
    3.4423299134e-02    1.0192691406e+05
    3.4436848015e-02    1.0192639844e+05
    3.4450393170e-02    1.0193055469e+05
    3.4463927150e-02    1.0192599219e+05
    3.4477461129e-02    1.0192496094e+05
    3.4490987659e-02    1.0192438281e+05
    3.4504506737e-02    1.0192371094e+05
    3.4518022090e-02    1.0192224219e+05
    3.4531529993e-02    1.0192168750e+05
    3.4545030445e-02    1.0191467969e+05
    3.4558523446e-02    1.0190828906e+05
    3.4572008997e-02    1.0190753906e+05
    3.4585487098e-02    1.0190439844e+05
    3.4598957747e-02    1.0190239844e+05
    3.4612424672e-02    1.0190035156e+05
    3.4625884145e-02    1.0189833594e+05
    3.4639336169e-02    1.0189765625e+05
    3.4652780741e-02    1.0189705469e+05
    3.4666225314e-02    1.0190071875e+05
    3.4679658711e-02    1.0190222656e+05
    3.4693088382e-02    1.0189963281e+05
    3.4706510603e-02    1.0189008594e+05
    3.4719929099e-02    1.0188791406e+05
    3.4733340144e-02    1.0188686719e+05
    3.4746743739e-02    1.0188465625e+05
    3.4760143608e-02    1.0188357031e+05
    3.4773536026e-02    1.0188191406e+05
    3.4786924720e-02    1.0187971094e+05
    3.4800305963e-02    1.0187863281e+05
    3.4813679755e-02    1.0187633594e+05
    3.4827046096e-02    1.0187396875e+05
    3.4840408713e-02    1.0187269531e+05
    3.4853763878e-02    1.0187030469e+05
    3.4867111593e-02    1.0186833594e+05
    3.4880455583e-02    1.0186565625e+05
    3.4893795848e-02    1.0185946094e+05
    3.4907124937e-02    1.0185700000e+05
    3.4920454025e-02    1.0184978906e+05
    3.4933775663e-02    1.0184715625e+05
    3.4947093576e-02    1.0184222656e+05
    3.4960404038e-02    1.0184182031e+05
    3.4973710775e-02    1.0184143750e+05
    3.4987010062e-02    1.0184233594e+05
endcurve
