Curveplot
LS-DYNA keyword deck by LS-PrePost                          
Time
Pressure
Defined Connection
Pressure @ 71 #pts=1745
* Minval=     9.9507789062e+04 at time=         0.0162927024
* Maxval=     1.6763734375e+05 at time=         0.0072334167
    0.0000000000e+00    9.9996789062e+04
    3.3812357287e-05    9.9996789062e+04
    6.1326652940e-05    9.9999335938e+04
    8.9102875791e-05    9.9997250000e+04
    1.1682785407e-04    9.9997375000e+04
    1.4461828687e-04    9.9998867188e+04
    1.7236733402e-04    1.0000068750e+05
    2.0016246708e-04    1.0000944531e+05
    2.2795486439e-04    9.9999773438e+04
    2.5574557367e-04    9.9999812500e+04
    2.8353667585e-04    1.0000069531e+05
    3.1133697485e-04    9.9992414062e+04
    3.3912662184e-04    9.9999164062e+04
    3.6691734567e-04    9.9999335938e+04
    3.9470891352e-04    9.9999812500e+04
    4.2249175021e-04    1.0000722656e+05
    4.5027161832e-04    1.0000211719e+05
    4.7804549104e-04    1.0000117969e+05
    5.0581363030e-04    1.0000114844e+05
    5.3357944125e-04    1.0000210156e+05
    5.6134146871e-04    9.9992742188e+04
    5.8909942163e-04    1.0000033594e+05
    6.1685312539e-04    9.9996593750e+04
    6.4460188150e-04    9.9999851562e+04
    6.7234638846e-04    1.0000117969e+05
    7.0008635521e-04    1.0000336719e+05
    7.2782178177e-04    1.0000062500e+05
    7.5555208605e-04    1.0000166406e+05
    7.8327720985e-04    1.0000153906e+05
    8.1099680392e-04    1.0000169531e+05
    8.3871174138e-04    1.0000066406e+05
    8.6642213864e-04    1.0000035156e+05
    8.9412782108e-04    9.9995398438e+04
    9.2182843946e-04    1.0000096094e+05
    9.4952445943e-04    1.0000247656e+05
    9.7721535712e-04    1.0000121094e+05
    1.0049008997e-03    9.9998195312e+04
    1.0325826006e-03    9.9992257812e+04
    1.0602590628e-03    1.0000139844e+05
    1.0879321489e-03    1.0001128125e+05
    1.1155996472e-03    1.0001063281e+05
    1.1432634201e-03    1.0000119531e+05
    1.1709230021e-03    9.9983835938e+04
    1.1985785095e-03    9.9985625000e+04
    1.2262313394e-03    9.9999351562e+04
    1.2538790470e-03    1.0000949219e+05
    1.2815232622e-03    1.0001025781e+05
    1.3091630535e-03    1.0000141406e+05
    1.3368004002e-03    9.9996429688e+04
    1.3644339051e-03    1.0000910156e+05
    1.3920635683e-03    1.0002469531e+05
    1.4196902048e-03    1.0006121094e+05
    1.4473132323e-03    1.0010541406e+05
    1.4749332331e-03    1.0018981250e+05
    1.5025498578e-03    1.0031900000e+05
    1.5301633393e-03    1.0051068750e+05
    1.5577742597e-03    1.0077641406e+05
    1.5853822697e-03    1.0110277344e+05
    1.6129877185e-03    1.0147231250e+05
    1.6405890929e-03    1.0186671094e+05
    1.6681876732e-03    1.0225002344e+05
    1.6957829939e-03    1.0259460156e+05
    1.7233766848e-03    1.0287232031e+05
    1.7509678146e-03    1.0304984375e+05
    1.7785291420e-03    1.0313572656e+05
    1.8060547300e-03    1.0313117969e+05
    1.8335470231e-03    1.0305731250e+05
    1.8610082334e-03    1.0292150781e+05
    1.8884401070e-03    1.0275624219e+05
    1.9158447394e-03    1.0258078906e+05
    1.9432241097e-03    1.0241721875e+05
    1.9705800805e-03    1.0229259375e+05
    1.9979148638e-03    1.0221160156e+05
    2.0252298564e-03    1.0219288281e+05
    2.0525271539e-03    1.0221410156e+05
    2.0798076876e-03    1.0226859375e+05
    2.1070730872e-03    1.0234446875e+05
    2.1343247499e-03    1.0242094531e+05
    2.1615643054e-03    1.0248041406e+05
    2.1887931507e-03    1.0252935156e+05
    2.2160108201e-03    1.0254827344e+05
    2.2432196420e-03    1.0253914844e+05
    2.2704207804e-03    1.0251689844e+05
    2.2976147011e-03    1.0248487500e+05
    2.3248014040e-03    1.0244467969e+05
    2.3519827519e-03    1.0241099219e+05
    2.3791582789e-03    1.0239005469e+05
    2.4063293822e-03    1.0238316406e+05
    2.4334960617e-03    1.0238508594e+05
    2.4606597144e-03    1.0239453906e+05
    2.4878205732e-03    1.0241118750e+05
    2.5149781723e-03    1.0243028906e+05
    2.5421329774e-03    1.0244110156e+05
    2.5692859199e-03    1.0244744531e+05
    2.5964374654e-03    1.0244717969e+05
    2.6235871483e-03    1.0244466406e+05
    2.6507352013e-03    1.0243685156e+05
    2.6778825559e-03    1.0242971875e+05
    2.7050296776e-03    1.0242147656e+05
    2.7321761008e-03    1.0241987500e+05
    2.7593218256e-03    1.0241450000e+05
    2.7864677832e-03    1.0241571875e+05
    2.8136142064e-03    1.0242346875e+05
    2.8407603968e-03    1.0243606250e+05
    2.8679079842e-03    1.0243866406e+05
    2.8950548731e-03    1.0246118750e+05
    2.9222022276e-03    1.0248702344e+05
    2.9493502807e-03    1.0252374219e+05
    2.9764990322e-03    1.0257390625e+05
    3.0036487151e-03    1.0264328906e+05
    3.0307997949e-03    1.0272317969e+05
    3.0579508748e-03    1.0281100781e+05
    3.0851035845e-03    1.0291577344e+05
    3.1122572254e-03    1.0302591406e+05
    3.1394117977e-03    1.0311465625e+05
    3.1665677670e-03    1.0320534375e+05
    3.1937246677e-03    1.0326775000e+05
    3.2208829653e-03    1.0330122656e+05
    3.2480424270e-03    1.0331038281e+05
    3.2752046827e-03    1.0328725781e+05
    3.2952371985e-03    1.0325443750e+05
    3.3145032357e-03    1.0322369531e+05
    3.3336398192e-03    1.0318539844e+05
    3.3528339118e-03    1.0314780469e+05
    3.3720366191e-03    1.0309974219e+05
    3.3912549261e-03    1.0306483594e+05
    3.4104890656e-03    1.0301549219e+05
    3.4297339153e-03    1.0297072656e+05
    3.4486323129e-03    1.0293110156e+05
    3.4671388566e-03    1.0288077344e+05
    3.4854323603e-03    1.0283139844e+05
    3.5036695190e-03    1.0277177344e+05
    3.5219141282e-03    1.0270666406e+05
    3.5401545465e-03    1.0263790625e+05
    3.5583588760e-03    1.0256502344e+05
    3.5765271168e-03    1.0248878125e+05
    3.5946895368e-03    1.0242517969e+05
    3.6139658187e-03    1.0237133594e+05
    3.6330535077e-03    1.0232112500e+05
    3.6521453876e-03    1.0228078906e+05
    3.6699753255e-03    1.0224983594e+05
    3.6875614896e-03    1.0223203906e+05
    3.7050142419e-03    1.0221568750e+05
    3.7224807311e-03    1.0220159375e+05
    3.7400643341e-03    1.0218030469e+05
    3.7577797193e-03    1.0217052344e+05
    3.7755726371e-03    1.0215215625e+05
    3.7933769636e-03    1.0214410156e+05
    3.8111612666e-03    1.0214008594e+05
    3.8289318327e-03    1.0212989844e+05
    3.8467168342e-03    1.0212530469e+05
    3.8645383902e-03    1.0211977344e+05
    3.8824023213e-03    1.0211121094e+05
    3.9002960548e-03    1.0209978906e+05
    3.9182156324e-03    1.0208950000e+05
    3.9361710660e-03    1.0207574219e+05
    3.9541716687e-03    1.0205671094e+05
    3.9733103476e-03    1.0203425781e+05
    3.9924201556e-03    1.0201821094e+05
    4.0104058571e-03    1.0200589844e+05
    4.0284004062e-03    1.0198900000e+05
    4.0464363992e-03    1.0197964844e+05
    4.0656095371e-03    1.0196715625e+05
    4.0847789496e-03    1.0196252344e+05
    4.1039343923e-03    1.0195896094e+05
    4.1219722480e-03    1.0194808594e+05
    4.1400394402e-03    1.0194633594e+05
    4.1591953486e-03    1.0194383594e+05
    4.1784178466e-03    1.0193291406e+05
    4.1976389475e-03    1.0192456250e+05
    4.2168586515e-03    1.0191996875e+05
    4.2360713705e-03    1.0190989844e+05
    4.2552771047e-03    1.0190078125e+05
    4.2744791135e-03    1.0189022656e+05
    4.2936825193e-03    1.0188033594e+05
    4.3128933758e-03    1.0186628125e+05
    4.3321144767e-03    1.0185333594e+05
    4.3513495475e-03    1.0183886719e+05
    4.3705995195e-03    1.0182041406e+05
    4.3898657896e-03    1.0180105469e+05
    4.4091497548e-03    1.0177575781e+05
    4.4284537435e-03    1.0175192969e+05
    4.4477786869e-03    1.0171364844e+05
    4.4671236537e-03    1.0167260156e+05
    4.4864914380e-03    1.0162002344e+05
    4.5058806427e-03    1.0155802344e+05
    4.5252908021e-03    1.0149132031e+05
    4.5447219163e-03    1.0140643750e+05
    4.5641721226e-03    1.0132192969e+05
    4.5836409554e-03    1.0122069531e+05
    4.6031279489e-03    1.0110982031e+05
    4.6226321720e-03    1.0098800781e+05
    4.6421540901e-03    1.0086233594e+05
    4.6616927721e-03    1.0073859375e+05
    4.6812482178e-03    1.0061185156e+05
    4.7008208930e-03    1.0049568750e+05
    4.7204112634e-03    1.0039346094e+05
    4.7400193289e-03    1.0030710156e+05
    4.7596455552e-03    1.0023215625e+05
    4.7792894766e-03    1.0017958594e+05
    4.7989510931e-03    1.0014683594e+05
    4.8186304048e-03    1.0014353125e+05
    4.8383255489e-03    1.0015464844e+05
    4.8580355942e-03    1.0019309375e+05
    4.8777610064e-03    1.0023605469e+05
    4.8975008540e-03    1.0029278125e+05
    4.9172551371e-03    1.0034996094e+05
    4.9370229244e-03    1.0040716406e+05
    4.9568060786e-03    1.0046800000e+05
    4.9766036682e-03    1.0052771875e+05
    4.9964170903e-03    1.0057800000e+05
    5.0162458792e-03    1.0062096875e+05
    5.0360900350e-03    1.0065005469e+05
    5.0559476949e-03    1.0066547656e+05
    5.0758207217e-03    1.0067041406e+05
    5.0957072526e-03    1.0067514844e+05
    5.1156077534e-03    1.0067571094e+05
    5.1355226897e-03    1.0066375781e+05
    5.1554525271e-03    1.0065259375e+05
    5.1753963344e-03    1.0063633594e+05
    5.1953555085e-03    1.0061524219e+05
    5.2153295837e-03    1.0059859375e+05
    5.2353194915e-03    1.0058203906e+05
    5.2553247660e-03    1.0056814844e+05
    5.2753463387e-03    1.0057164844e+05
    5.2953832783e-03    1.0056960156e+05
    5.3154369816e-03    1.0057864844e+05
    5.3355065174e-03    1.0058758594e+05
    5.3555918857e-03    1.0059490625e+05
    5.3756926209e-03    1.0060903125e+05
    5.3958082572e-03    1.0061587500e+05
    5.4159392603e-03    1.0062617969e+05
    5.4360851645e-03    1.0063807031e+05
    5.4562464356e-03    1.0064841406e+05
    5.4764230736e-03    1.0065475781e+05
    5.4966160096e-03    1.0066464844e+05
    5.5168238468e-03    1.0066837500e+05
    5.5370470509e-03    1.0066209375e+05
    5.5572865531e-03    1.0066443750e+05
    5.5775423534e-03    1.0066653125e+05
    5.5978130549e-03    1.0067721875e+05
    5.6181000546e-03    1.0068002344e+05
    5.6384028867e-03    1.0067238281e+05
    5.6587206200e-03    1.0067358594e+05
    5.6790532544e-03    1.0067577344e+05
    5.6994007900e-03    1.0067871094e+05
    5.7197632268e-03    1.0068202344e+05
    5.7401410304e-03    1.0068507031e+05
    5.7605337352e-03    1.0068771875e+05
    5.7809422724e-03    1.0069282031e+05
    5.8013652451e-03    1.0069486719e+05
    5.8218040504e-03    1.0069827344e+05
    5.8422577567e-03    1.0070334375e+05
    5.8627268299e-03    1.0071627344e+05
    5.8832112700e-03    1.0071903125e+05
    5.9037101455e-03    1.0071846094e+05
    5.9242248535e-03    1.0072300781e+05
    5.9447535314e-03    1.0073244531e+05
    5.9641525149e-03    1.0073691406e+05
    5.9830932878e-03    1.0074133594e+05
    6.0020405799e-03    1.0074465625e+05
    6.0210367665e-03    1.0075381250e+05
    6.0400799848e-03    1.0076303906e+05
    6.0591096990e-03    1.0075860156e+05
    6.0781282373e-03    1.0076892969e+05
    6.0972142965e-03    1.0077825000e+05
    6.1162756756e-03    1.0078335156e+05
    6.1353649944e-03    1.0078816406e+05
    6.1544459313e-03    1.0080358594e+05
    6.1734300107e-03    1.0080849219e+05
    6.1924448237e-03    1.0081683594e+05
    6.2115197070e-03    1.0082567969e+05
    6.2306127511e-03    1.0083686719e+05
    6.2497169711e-03    1.0084191406e+05
    6.2688281760e-03    1.0084896094e+05
    6.2879407778e-03    1.0086431250e+05
    6.3070552424e-03    1.0087975000e+05
    6.3261794858e-03    1.0088912500e+05
    6.3453060575e-03    1.0090782031e+05
    6.3644465990e-03    1.0092746875e+05
    6.3835908659e-03    1.0094714844e+05
    6.4027444459e-03    1.0095849219e+05
    6.4219115302e-03    1.0098027344e+05
    6.4410855994e-03    1.0100272656e+05
    6.4602680504e-03    1.0102580469e+05
    6.4794607460e-03    1.0103971094e+05
    6.4986641519e-03    1.0104511719e+05
    6.5178787336e-03    1.0104846094e+05
    6.5371058881e-03    1.0105872656e+05
    6.5563363023e-03    1.0106017969e+05
    6.5755699761e-03    1.0106338281e+05
    6.5948092379e-03    1.0107122656e+05
    6.6140629351e-03    1.0107162500e+05
    6.6333152354e-03    1.0107508594e+05
    6.6525745206e-03    1.0107072656e+05
    6.6718445159e-03    1.0106989844e+05
    6.6911154427e-03    1.0107040625e+05
    6.7104012705e-03    1.0106502344e+05
    6.7296870984e-03    1.0106589844e+05
    6.7489854991e-03    1.0106700000e+05
    6.7682852969e-03    1.0106671094e+05
    6.7875892855e-03    1.0106953906e+05
    6.8069072440e-03    1.0107171094e+05
    6.8262196146e-03    1.0107347656e+05
    6.8455408327e-03    1.0106992969e+05
    6.8648783490e-03    1.0106946094e+05
    6.8842126057e-03    1.0106639844e+05
    6.9035501219e-03    1.0107252344e+05
    6.9228983484e-03    1.0108421094e+05
    6.9422605447e-03    1.0111327344e+05
    6.9616222754e-03    1.0117775000e+05
    6.9809844717e-03    1.0131621875e+05
    7.0003494620e-03    1.0160271094e+05
    7.0197195746e-03    1.0216634375e+05
    7.0390999317e-03    1.0328164844e+05
    7.0584909990e-03    1.0536982031e+05
    7.0778946392e-03    1.0901275000e+05
    7.0973108523e-03    1.1479008594e+05
    7.1167377755e-03    1.2298937500e+05
    7.1361698210e-03    1.3321929688e+05
    7.1556069888e-03    1.4422554688e+05
    7.1750483476e-03    1.5426068750e+05
    7.1944966912e-03    1.6180390625e+05
    7.2139529511e-03    1.6616931250e+05
    7.2334166616e-03    1.6763734375e+05
    7.2528840974e-03    1.6706412500e+05
    7.2723543271e-03    1.6541578125e+05
    7.2918278165e-03    1.6350543750e+05
    7.3113050312e-03    1.6183259375e+05
    7.3307845742e-03    1.6049078125e+05
    7.3502692394e-03    1.5934104688e+05
    7.3697618209e-03    1.5823248438e+05
    7.3892641813e-03    1.5697673438e+05
    7.4087800458e-03    1.5550543750e+05
    7.4282912537e-03    1.5381442188e+05
    7.4477996677e-03    1.5198981250e+05
    7.4673094787e-03    1.5014557812e+05
    7.4868267402e-03    1.4836421875e+05
    7.5063589029e-03    1.4669878125e+05
    7.5258887373e-03    1.4515987500e+05
    7.5454111211e-03    1.4373595312e+05
    7.5649353676e-03    1.4238687500e+05
    7.5844703242e-03    1.4109070312e+05
    7.6040057465e-03    1.3981457812e+05
    7.6235276647e-03    1.3857034375e+05
    7.6430505142e-03    1.3735142188e+05
    7.6625877991e-03    1.3618384375e+05
    7.6821087860e-03    1.3508500000e+05
    7.7016241848e-03    1.3406343750e+05
    7.7211544849e-03    1.3312323438e+05
    7.7406810597e-03    1.3226739062e+05
    7.7602043748e-03    1.3148021875e+05
    7.7797495760e-03    1.3075960156e+05
    7.7992938459e-03    1.3007197656e+05
    7.8188432381e-03    1.2941725000e+05
    7.8384252265e-03    1.2877597656e+05
    7.8580006957e-03    1.2815255469e+05
    7.8775910661e-03    1.2752994531e+05
    7.8972103074e-03    1.2690487500e+05
    7.9168286175e-03    1.2628583594e+05
    7.9364804551e-03    1.2566990625e+05
    7.9561360180e-03    1.2506396875e+05
    7.9758102074e-03    1.2446508594e+05
    7.9955114052e-03    1.2387942969e+05
    8.0152126029e-03    1.2331234375e+05
    8.0349491909e-03    1.2276519531e+05
    8.0546662211e-03    1.2223959375e+05
    8.0743944272e-03    1.2175289844e+05
    8.0941170454e-03    1.2130022656e+05
    8.1138620153e-03    1.2088153906e+05
    8.1336386502e-03    1.2049383594e+05
    8.1534720957e-03    1.2014138281e+05
    8.1733558327e-03    1.1980985156e+05
    8.1932730973e-03    1.1949563281e+05
    8.2132071257e-03    1.1920109375e+05
    8.2330890000e-03    1.1891014844e+05
    8.2529615611e-03    1.1863086719e+05
    8.2727763802e-03    1.1836446875e+05
    8.2926023751e-03    1.1810533594e+05
    8.3124246448e-03    1.1785996094e+05
    8.3322748542e-03    1.1763380469e+05
    8.3521194756e-03    1.1742175781e+05
    8.3719678223e-03    1.1722421094e+05
    8.3917891607e-03    1.1704206250e+05
    8.4116021171e-03    1.1687264844e+05
    8.4314141423e-03    1.1671807031e+05
    8.4512168542e-03    1.1656227344e+05
    8.4710381925e-03    1.1641978125e+05
    8.4908353165e-03    1.1627671094e+05
    8.5106678307e-03    1.1613358594e+05
    8.5304882377e-03    1.1598943750e+05
    8.5503393784e-03    1.1584172656e+05
    8.5699046031e-03    1.1569900000e+05
    8.5892248899e-03    1.1555860156e+05
    8.6083402857e-03    1.1543034375e+05
    8.6272666231e-03    1.1530865625e+05
    8.6460309103e-03    1.1519372656e+05
    8.6646731943e-03    1.1509136719e+05
    8.6832325906e-03    1.1499137500e+05
    8.7017398328e-03    1.1489702344e+05
    8.7202098221e-03    1.1480602344e+05
    8.7386453524e-03    1.1472393750e+05
    8.7570473552e-03    1.1463878906e+05
    8.7753897533e-03    1.1454911719e+05
    8.7936492637e-03    1.1446257031e+05
    8.8118780404e-03    1.1437374219e+05
    8.8300397620e-03    1.1428297656e+05
    8.8481390849e-03    1.1419418750e+05
    8.8662039489e-03    1.1409822656e+05
    8.8842641562e-03    1.1399522656e+05
    8.9023411274e-03    1.1388924219e+05
    8.9204348624e-03    1.1377453906e+05
    8.9385388419e-03    1.1365460156e+05
    8.9566456154e-03    1.1353200781e+05
    8.9747514576e-03    1.1340494531e+05
    8.9928600937e-03    1.1327333594e+05
    9.0109808370e-03    1.1314292969e+05
    9.0291155502e-03    1.1300728906e+05
    9.0472688898e-03    1.1286885156e+05
    9.0654399246e-03    1.1273152344e+05
    9.0836230665e-03    1.1259103906e+05
    9.1018192470e-03    1.1245671875e+05
    9.1200266033e-03    1.1232750000e+05
    9.1382460669e-03    1.1221347656e+05
    9.1564757749e-03    1.1210892969e+05
    9.1747231781e-03    1.1201741406e+05
    9.1929892078e-03    1.1193518750e+05
    9.2112747952e-03    1.1186408594e+05
    9.2295790091e-03    1.1180121875e+05
    9.2479009181e-03    1.1174412500e+05
    9.2662386596e-03    1.1168843750e+05
    9.2845931649e-03    1.1163874219e+05
    9.3029672280e-03    1.1158205469e+05
    9.3213599175e-03    1.1153369531e+05
    9.3397712335e-03    1.1147340625e+05
    9.3582011759e-03    1.1140303906e+05
    9.3766497448e-03    1.1133028125e+05
    9.3951150775e-03    1.1125253906e+05
    9.4135999680e-03    1.1117250000e+05
    9.4321016222e-03    1.1109828906e+05
    9.4506228343e-03    1.1101978125e+05
    9.4691645354e-03    1.1094928906e+05
    9.4877239317e-03    1.1088050781e+05
    9.5063010231e-03    1.1080802344e+05
    9.5248948783e-03    1.1074435156e+05
    9.5435054973e-03    1.1068047656e+05
    9.5621328801e-03    1.1061558594e+05
    9.5807760954e-03    1.1056255469e+05
    9.5994332805e-03    1.1051657031e+05
    9.6181081608e-03    1.1047182031e+05
    9.6367979422e-03    1.1042978906e+05
    9.6555035561e-03    1.1038797656e+05
    9.6742231399e-03    1.1034709375e+05
    9.6929576248e-03    1.1030182031e+05
    9.7117051482e-03    1.1025533594e+05
    9.7304685041e-03    1.1020772656e+05
    9.7492448986e-03    1.1015710156e+05
    9.7680361941e-03    1.1010672656e+05
    9.7868405282e-03    1.1005449219e+05
    9.8056588322e-03    1.1000084375e+05
    9.8244920373e-03    1.0994196875e+05
    9.8433364183e-03    1.0988235156e+05
    9.8621929064e-03    1.0982411719e+05
    9.8810633644e-03    1.0976302344e+05
    9.8999459296e-03    1.0971166406e+05
    9.9188406020e-03    1.0966016406e+05
    9.9377483130e-03    1.0960889844e+05
    9.9566690624e-03    1.0956782031e+05
    9.9756028503e-03    1.0952441406e+05
    9.9945487455e-03    1.0948471094e+05
    1.0013507679e-02    1.0944558594e+05
    1.0032479651e-02    1.0940134375e+05
    1.0051463731e-02    1.0936396094e+05
    1.0070459917e-02    1.0932714844e+05
    1.0089469142e-02    1.0929327344e+05
    1.0108492337e-02    1.0925752344e+05
    1.0127528571e-02    1.0922353906e+05
    1.0146577843e-02    1.0918391406e+05
    1.0165639222e-02    1.0914068750e+05
    1.0184712708e-02    1.0909150000e+05
    1.0203798302e-02    1.0903931250e+05
    1.0222896002e-02    1.0898360156e+05
    1.0242006741e-02    1.0892432031e+05
    1.0261129588e-02    1.0886312500e+05
    1.0280264542e-02    1.0879983594e+05
    1.0299413465e-02    1.0873874219e+05
    1.0318575427e-02    1.0867212500e+05
    1.0337748565e-02    1.0860522656e+05
    1.0356934741e-02    1.0853588281e+05
    1.0376133956e-02    1.0846471094e+05
    1.0395346209e-02    1.0839227344e+05
    1.0414571501e-02    1.0831296094e+05
    1.0433809832e-02    1.0823909375e+05
    1.0453061201e-02    1.0816434375e+05
    1.0472324677e-02    1.0808758594e+05
    1.0491601191e-02    1.0801083594e+05
    1.0510892607e-02    1.0792960156e+05
    1.0530196130e-02    1.0785259375e+05
    1.0549513623e-02    1.0778057031e+05
    1.0568842292e-02    1.0771247656e+05
    1.0588183999e-02    1.0764972656e+05
    1.0607538745e-02    1.0759142969e+05
    1.0626907460e-02    1.0752849219e+05
    1.0646289214e-02    1.0747510156e+05
    1.0665684007e-02    1.0740660156e+05
    1.0685092770e-02    1.0734608594e+05
    1.0704516433e-02    1.0728965625e+05
    1.0723951273e-02    1.0723257031e+05
    1.0743400082e-02    1.0717436719e+05
    1.0762862861e-02    1.0711859375e+05
    1.0782338679e-02    1.0706322656e+05
    1.0801829398e-02    1.0700664844e+05
    1.0821334086e-02    1.0695396094e+05
    1.0840852745e-02    1.0690309375e+05
    1.0860386305e-02    1.0684858594e+05
    1.0879932903e-02    1.0680378906e+05
    1.0899493471e-02    1.0674997656e+05
    1.0919069871e-02    1.0669657031e+05
    1.0938662104e-02    1.0664780469e+05
    1.0958270170e-02    1.0659414844e+05
    1.0977892205e-02    1.0653915625e+05
    1.0997531936e-02    1.0648708594e+05
    1.1017187499e-02    1.0642439844e+05
    1.1036860757e-02    1.0637009375e+05
    1.1056551710e-02    1.0630690625e+05
    1.1076259427e-02    1.0624719531e+05
    1.1095987633e-02    1.0618842969e+05
    1.1115733534e-02    1.0613305469e+05
    1.1135498993e-02    1.0607592969e+05
    1.1155283079e-02    1.0601910156e+05
    1.1175086722e-02    1.0596441406e+05
    1.1194912717e-02    1.0589935156e+05
    1.1214758269e-02    1.0582327344e+05
    1.1234625243e-02    1.0574543750e+05
    1.1254511774e-02    1.0566653906e+05
    1.1274418794e-02    1.0558539844e+05
    1.1294347234e-02    1.0550203906e+05
    1.1314296164e-02    1.0541680469e+05
    1.1334266514e-02    1.0532739844e+05
    1.1354257353e-02    1.0522174219e+05
    1.1374268681e-02    1.0511865625e+05
    1.1394302361e-02    1.0500391406e+05
    1.1414355598e-02    1.0488656250e+05
    1.1434430256e-02    1.0477474219e+05
    1.1454525404e-02    1.0466597656e+05
    1.1474640109e-02    1.0456980469e+05
    1.1494777165e-02    1.0447390625e+05
    1.1514934711e-02    1.0438341406e+05
    1.1535113677e-02    1.0430983594e+05
    1.1555313133e-02    1.0425153906e+05
    1.1575534008e-02    1.0421306250e+05
    1.1595774442e-02    1.0418711719e+05
    1.1616035365e-02    1.0417215625e+05
    1.1636316776e-02    1.0416657031e+05
    1.1656619608e-02    1.0416307031e+05
    1.1676942930e-02    1.0415856250e+05
    1.1697287671e-02    1.0415996875e+05
    1.1717652902e-02    1.0416132031e+05
    1.1738038622e-02    1.0416141406e+05
    1.1758443899e-02    1.0414589844e+05
    1.1778870597e-02    1.0412846094e+05
    1.1799318716e-02    1.0410571094e+05
    1.1819788255e-02    1.0408116406e+05
    1.1840280145e-02    1.0405933594e+05
    1.1860790662e-02    1.0404162500e+05
    1.1881321669e-02    1.0402871875e+05
    1.1901874095e-02    1.0402010156e+05
    1.1922447011e-02    1.0401036719e+05
    1.1943042278e-02    1.0400516406e+05
    1.1963658035e-02    1.0400125781e+05
    1.1984295212e-02    1.0398189844e+05
    1.2004952878e-02    1.0396381250e+05
    1.2025631964e-02    1.0392396875e+05
    1.2046331540e-02    1.0387505469e+05
    1.2067052536e-02    1.0381943750e+05
    1.2087795883e-02    1.0375010156e+05
    1.2108558789e-02    1.0368094531e+05
    1.2129344046e-02    1.0360641406e+05
    1.2150149792e-02    1.0353716406e+05
    1.2170976959e-02    1.0345796094e+05
    1.2191825546e-02    1.0337439844e+05
    1.2212695554e-02    1.0328703125e+05
    1.2233586982e-02    1.0319339844e+05
    1.2254500762e-02    1.0310102344e+05
    1.2275436893e-02    1.0301325781e+05
    1.2296394445e-02    1.0292914844e+05
    1.2317374349e-02    1.0284578906e+05
    1.2338375673e-02    1.0277503125e+05
    1.2359398417e-02    1.0271321094e+05
    1.2380442582e-02    1.0265267969e+05
    1.2401508167e-02    1.0260590625e+05
    1.2422595173e-02    1.0256325781e+05
    1.2443703599e-02    1.0253010156e+05
    1.2464834377e-02    1.0250582031e+05
    1.2485986575e-02    1.0248774219e+05
    1.2507158332e-02    1.0247037500e+05
    1.2528351508e-02    1.0246810156e+05
    1.2549565174e-02    1.0246860156e+05
    1.2570801191e-02    1.0248917969e+05
    1.2592058629e-02    1.0253253906e+05
    1.2613337487e-02    1.0260902344e+05
    1.2634636834e-02    1.0273411719e+05
    1.2655957602e-02    1.0291496094e+05
    1.2677297927e-02    1.0317387500e+05
    1.2698660605e-02    1.0352428906e+05
    1.2720043771e-02    1.0398855469e+05
    1.2741449289e-02    1.0458241406e+05
    1.2762876227e-02    1.0531962500e+05
    1.2784325518e-02    1.0619272656e+05
    1.2805794366e-02    1.0717447656e+05
    1.2827285565e-02    1.0823234375e+05
    1.2848797254e-02    1.0929650781e+05
    1.2870330364e-02    1.1029665625e+05
    1.2891885825e-02    1.1115065625e+05
    1.2913462706e-02    1.1179827344e+05
    1.2935061008e-02    1.1219566406e+05
    1.2956679799e-02    1.1232911719e+05
    1.2978320010e-02    1.1221600781e+05
    1.2999981642e-02    1.1188099219e+05
    1.3021663763e-02    1.1136849219e+05
    1.3043368235e-02    1.1073425781e+05
    1.3065092266e-02    1.1003912500e+05
    1.3086837716e-02    1.0933344531e+05
    1.3108605519e-02    1.0866691406e+05
    1.3130392879e-02    1.0809250781e+05
    1.3152201660e-02    1.0761331250e+05
    1.3174032792e-02    1.0724785156e+05
    1.3195885345e-02    1.0696135156e+05
    1.3217759319e-02    1.0671641406e+05
    1.3239653781e-02    1.0648565625e+05
    1.3261569664e-02    1.0623800781e+05
    1.3283506967e-02    1.0593677344e+05
    1.3305463828e-02    1.0557344531e+05
    1.3327440247e-02    1.0515511719e+05
    1.3349435292e-02    1.0469503906e+05
    1.3371448033e-02    1.0421003125e+05
    1.3393475674e-02    1.0371625000e+05
    1.3415516354e-02    1.0325200781e+05
    1.3437564485e-02    1.0283561719e+05
    1.3459613547e-02    1.0247678906e+05
    1.3481658883e-02    1.0218283594e+05
    1.3503690250e-02    1.0194878125e+05
    1.3525702059e-02    1.0176443750e+05
    1.3547683135e-02    1.0162117969e+05
    1.3569628820e-02    1.0150719531e+05
    1.3591531664e-02    1.0141833594e+05
    1.3613392599e-02    1.0134202344e+05
    1.3635210693e-02    1.0127457031e+05
    1.3656994328e-02    1.0120525781e+05
    1.3678749092e-02    1.0113725781e+05
    1.3700488023e-02    1.0106959375e+05
    1.3722228818e-02    1.0100291406e+05
    1.3743981719e-02    1.0095191406e+05
    1.3765762560e-02    1.0090660156e+05
    1.3787578791e-02    1.0086962500e+05
    1.3809437864e-02    1.0084253125e+05
    1.3831341639e-02    1.0081428906e+05
    1.3853288256e-02    1.0079653906e+05
    1.3875273056e-02    1.0077914844e+05
    1.3897285797e-02    1.0076208594e+05
    1.3919321820e-02    1.0074366406e+05
    1.3941374607e-02    1.0073082031e+05
    1.3963440433e-02    1.0071372656e+05
    1.3985517435e-02    1.0069592969e+05
    1.4007603750e-02    1.0069177344e+05
    1.4029704034e-02    1.0070400000e+05
    1.4051820152e-02    1.0073603125e+05
    1.4073957689e-02    1.0079024219e+05
    1.4096121304e-02    1.0085928906e+05
    1.4118315652e-02    1.0093421094e+05
    1.4140545391e-02    1.0101819531e+05
    1.4162814245e-02    1.0109287500e+05
    1.4185124077e-02    1.0116252344e+05
    1.4207473956e-02    1.0121689844e+05
    1.4229862019e-02    1.0125394531e+05
    1.4252286404e-02    1.0126959375e+05
    1.4274741523e-02    1.0126678906e+05
    1.4297228307e-02    1.0125571875e+05
    1.4319745824e-02    1.0124292969e+05
    1.4342290349e-02    1.0123387500e+05
    1.4364863746e-02    1.0123384375e+05
    1.4387467876e-02    1.0125194531e+05
    1.4410103671e-02    1.0127703906e+05
    1.4432771131e-02    1.0130786719e+05
    1.4455472119e-02    1.0134614844e+05
    1.4478209428e-02    1.0138771875e+05
    1.4500979334e-02    1.0142669531e+05
    1.4523783699e-02    1.0145285156e+05
    1.4546621591e-02    1.0147828906e+05
    1.4569494873e-02    1.0149494531e+05
    1.4592399821e-02    1.0150703906e+05
    1.4615339227e-02    1.0151308594e+05
    1.4638305642e-02    1.0151458594e+05
    1.4661304653e-02    1.0151421094e+05
    1.4684336260e-02    1.0151600000e+05
    1.4707398601e-02    1.0151675781e+05
    1.4730494469e-02    1.0151325781e+05
    1.4753622934e-02    1.0151677344e+05
    1.4776783995e-02    1.0151830469e+05
    1.4799979515e-02    1.0151408594e+05
    1.4823205769e-02    1.0150814844e+05
    1.4846466482e-02    1.0150739844e+05
    1.4869757928e-02    1.0149552344e+05
    1.4893081971e-02    1.0148421875e+05
    1.4916437678e-02    1.0146935156e+05
    1.4939822257e-02    1.0145809375e+05
    1.4963239431e-02    1.0144772656e+05
    1.4986685477e-02    1.0143200000e+05
    1.5010161325e-02    1.0141296875e+05
    1.5033668838e-02    1.0139864844e+05
    1.5057205223e-02    1.0138121094e+05
    1.5080772340e-02    1.0136760156e+05
    1.5104367398e-02    1.0134674219e+05
    1.5127992257e-02    1.0132680469e+05
    1.5151646920e-02    1.0129616406e+05
    1.5175330453e-02    1.0126246094e+05
    1.5199041925e-02    1.0122602344e+05
    1.5222782269e-02    1.0118753906e+05
    1.5246548690e-02    1.0115153906e+05
    1.5270343982e-02    1.0111633594e+05
    1.5294168144e-02    1.0108460156e+05
    1.5318016522e-02    1.0105152344e+05
    1.5341891907e-02    1.0101831250e+05
    1.5365792438e-02    1.0098575000e+05
    1.5389721841e-02    1.0095721094e+05
    1.5413676389e-02    1.0093352344e+05
    1.5437657945e-02    1.0090740625e+05
    1.5461664647e-02    1.0088503906e+05
    1.5485695563e-02    1.0085962500e+05
    1.5509752557e-02    1.0083277344e+05
    1.5533835627e-02    1.0080722656e+05
    1.5557944775e-02    1.0076977344e+05
    1.5582079068e-02    1.0073858594e+05
    1.5606240369e-02    1.0070543750e+05
    1.5630424023e-02    1.0067064844e+05
    1.5654634684e-02    1.0063916406e+05
    1.5678871423e-02    1.0060671094e+05
    1.5703132376e-02    1.0056368750e+05
    1.5727419406e-02    1.0052008594e+05
    1.5751728788e-02    1.0047067969e+05
    1.5776060522e-02    1.0042939844e+05
    1.5800418332e-02    1.0039092969e+05
    1.5824800357e-02    1.0034622656e+05
    1.5849204734e-02    1.0030071094e+05
    1.5873633325e-02    1.0024783594e+05
    1.5898084268e-02    1.0019407031e+05
    1.5922557563e-02    1.0013727344e+05
    1.5947058797e-02    1.0008368750e+05
    1.5971582383e-02    1.0002741406e+05
    1.5996130183e-02    9.9965507812e+04
    1.6020702198e-02    9.9903820312e+04
    1.6045298427e-02    9.9852320312e+04
    1.6069920734e-02    9.9797835938e+04
    1.6094569117e-02    9.9745148438e+04
    1.6119243577e-02    9.9692132812e+04
    1.6143942252e-02    9.9641164062e+04
    1.6168667004e-02    9.9597257812e+04
    1.6193419695e-02    9.9559960938e+04
    1.6218200326e-02    9.9532648438e+04
    1.6243007034e-02    9.9514414062e+04
    1.6267839819e-02    9.9510507812e+04
    1.6292702407e-02    9.9507789062e+04
    1.6317596659e-02    9.9513914062e+04
    1.6342513263e-02    9.9531539062e+04
    1.6367461532e-02    9.9559937500e+04
    1.6392435879e-02    9.9595085938e+04
    1.6417443752e-02    9.9634898438e+04
    1.6442479566e-02    9.9677101562e+04
    1.6467543319e-02    9.9723867188e+04
    1.6492636874e-02    9.9771750000e+04
    1.6517756507e-02    9.9817554688e+04
    1.6542907804e-02    9.9853773438e+04
    1.6568088904e-02    9.9884062500e+04
    1.6593271866e-02    9.9919429688e+04
    1.6618426889e-02    9.9947500000e+04
    1.6643559560e-02    9.9970992188e+04
    1.6668669879e-02    9.9988867188e+04
    1.6693757847e-02    1.0000419531e+05
    1.6718825325e-02    1.0002344531e+05
    1.6743874177e-02    1.0003746094e+05
    1.6768900678e-02    1.0005902344e+05
    1.6793908551e-02    1.0007460156e+05
    1.6818899661e-02    1.0009800000e+05
    1.6843874007e-02    1.0012735156e+05
    1.6868829727e-02    1.0015931250e+05
    1.6893770546e-02    1.0018346094e+05
    1.6918692738e-02    1.0021230469e+05
    1.6943598166e-02    1.0023760156e+05
    1.6968490556e-02    1.0026903906e+05
    1.6993366182e-02    1.0029717969e+05
    1.7018226907e-02    1.0032566406e+05
    1.7043072730e-02    1.0035669531e+05
    1.7067901790e-02    1.0038560156e+05
    1.7092714086e-02    1.0041327344e+05
    1.7117511481e-02    1.0044536719e+05
    1.7142292112e-02    1.0048193750e+05
    1.7167057842e-02    1.0052421094e+05
    1.7191808671e-02    1.0057186719e+05
    1.7216544598e-02    1.0062484375e+05
    1.7241263762e-02    1.0068194531e+05
    1.7265968025e-02    1.0073977344e+05
    1.7290659249e-02    1.0079628906e+05
    1.7315333709e-02    1.0085600000e+05
    1.7339993268e-02    1.0091978125e+05
    1.7364639789e-02    1.0097635156e+05
    1.7389267683e-02    1.0103242969e+05
    1.7413880676e-02    1.0108488281e+05
    1.7438478768e-02    1.0113136719e+05
    1.7463061959e-02    1.0117106250e+05
    1.7487626523e-02    1.0121164844e+05
    1.7512176186e-02    1.0125171875e+05
    1.7536709085e-02    1.0128922656e+05
    1.7561223358e-02    1.0132435156e+05
    1.7585720867e-02    1.0134853125e+05
    1.7610201612e-02    1.0138250781e+05
    1.7634663731e-02    1.0141519531e+05
    1.7659107223e-02    1.0144697656e+05
    1.7683532089e-02    1.0147849219e+05
    1.7707940191e-02    1.0150608594e+05
    1.7732329667e-02    1.0153335156e+05
    1.7756698653e-02    1.0156016406e+05
    1.7781050876e-02    1.0157959375e+05
    1.7805384472e-02    1.0159835156e+05
    1.7829699442e-02    1.0161925781e+05
    1.7853999510e-02    1.0164699219e+05
    1.7878280953e-02    1.0166767969e+05
    1.7902545631e-02    1.0168644531e+05
    1.7926793545e-02    1.0170353906e+05
    1.7951028422e-02    1.0171868750e+05
    1.7975246534e-02    1.0173121094e+05
    1.7999447882e-02    1.0173863281e+05
    1.8023636192e-02    1.0175337500e+05
    1.8047811463e-02    1.0176097656e+05
    1.8071975559e-02    1.0176383594e+05
    1.8096126616e-02    1.0176967969e+05
    1.8120266497e-02    1.0177799219e+05
    1.8144397065e-02    1.0179171094e+05
    1.8168520182e-02    1.0180550781e+05
    1.8192630261e-02    1.0181808594e+05
    1.8216732889e-02    1.0183447656e+05
    1.8240824342e-02    1.0185135156e+05
    1.8264908344e-02    1.0187212500e+05
    1.8288983032e-02    1.0189546094e+05
    1.8313048407e-02    1.0192028906e+05
    1.8337102607e-02    1.0195578906e+05
    1.8361147493e-02    1.0199285156e+05
    1.8385183066e-02    1.0203653125e+05
    1.8409207463e-02    1.0208697656e+05
    1.8433224410e-02    1.0214437500e+05
    1.8457230181e-02    1.0221392969e+05
    1.8481226638e-02    1.0228446094e+05
    1.8505210057e-02    1.0236821094e+05
    1.8529184163e-02    1.0246814844e+05
    1.8553148955e-02    1.0256939844e+05
    1.8577100709e-02    1.0268317969e+05
    1.8601041287e-02    1.0281007031e+05
    1.8624972552e-02    1.0293497656e+05
    1.8648892641e-02    1.0306096875e+05
    1.8672801554e-02    1.0318384375e+05
    1.8696699291e-02    1.0329560156e+05
    1.8720587716e-02    1.0339187500e+05
    1.8744463101e-02    1.0346078906e+05
    1.8768329173e-02    1.0350900781e+05
    1.8792184070e-02    1.0352484375e+05
    1.8816027790e-02    1.0350338281e+05
    1.8839860335e-02    1.0344696875e+05
    1.8863683566e-02    1.0336228906e+05
    1.8887493759e-02    1.0324428906e+05
    1.8911294639e-02    1.0310053125e+05
    1.8935086206e-02    1.0291214844e+05
    1.8958866596e-02    1.0268902344e+05
    1.8982635811e-02    1.0244256250e+05
    1.9006397575e-02    1.0219105469e+05
    1.9030146301e-02    1.0194142969e+05
    1.9053885713e-02    1.0170353125e+05
    1.9077615812e-02    1.0148369531e+05
    1.9101334736e-02    1.0128460156e+05
    1.9125042483e-02    1.0111946094e+05
    1.9148740917e-02    1.0098082031e+05
    1.9172428176e-02    1.0088083594e+05
    1.9196104258e-02    1.0081075781e+05
    1.9219771028e-02    1.0077066406e+05
    1.9243424758e-02    1.0075183594e+05
    1.9267069176e-02    1.0075342969e+05
    1.9290700555e-02    1.0076502344e+05
    1.9314322621e-02    1.0078928906e+05
    1.9337931648e-02    1.0081878906e+05
    1.9361529499e-02    1.0085765625e+05
    1.9385114312e-02    1.0090305469e+05
    1.9408687949e-02    1.0094947656e+05
    1.9432250410e-02    1.0099699219e+05
    1.9455801696e-02    1.0104725000e+05
    1.9479339942e-02    1.0109827344e+05
    1.9502865151e-02    1.0115046094e+05
    1.9526379183e-02    1.0120675781e+05
    1.9549878314e-02    1.0126102344e+05
    1.9573366269e-02    1.0131197656e+05
    1.9596841186e-02    1.0135912500e+05
    1.9620303065e-02    1.0140477344e+05
    1.9643751904e-02    1.0144580469e+05
    1.9667187706e-02    1.0148405469e+05
    1.9690606743e-02    1.0151965625e+05
    1.9714014605e-02    1.0156246094e+05
    1.9737409428e-02    1.0160656250e+05
    1.9760791212e-02    1.0165433594e+05
    1.9784159958e-02    1.0170427344e+05
    1.9807513803e-02    1.0175518750e+05
    1.9830854610e-02    1.0180813281e+05
    1.9854182377e-02    1.0186403906e+05
    1.9877497107e-02    1.0192232031e+05
    1.9900798798e-02    1.0198227344e+05
    1.9924087450e-02    1.0203325000e+05
    1.9947361201e-02    1.0208285156e+05
    1.9970623776e-02    1.0212943750e+05
    1.9993871450e-02    1.0217221875e+05
    2.0017107949e-02    1.0221000000e+05
    2.0040329546e-02    1.0224877344e+05
    2.0063538104e-02    1.0228058594e+05
    2.0086731762e-02    1.0230550781e+05
    2.0109914243e-02    1.0233357031e+05
    2.0133081824e-02    1.0236234375e+05
    2.0156236365e-02    1.0238766406e+05
    2.0179376006e-02    1.0240796094e+05
    2.0202504471e-02    1.0242659375e+05
    2.0225618035e-02    1.0244375781e+05
    2.0248720422e-02    1.0245366406e+05
    2.0271807909e-02    1.0245272656e+05
    2.0294882357e-02    1.0245335156e+05
    2.0317947492e-02    1.0245378906e+05
    2.0340997726e-02    1.0244617969e+05
    2.0364036784e-02    1.0243577344e+05
    2.0387060940e-02    1.0241968750e+05
    2.0410073921e-02    1.0240083594e+05
    2.0433073863e-02    1.0237363281e+05
    2.0456060767e-02    1.0235314844e+05
    2.0479036495e-02    1.0232865625e+05
    2.0501999184e-02    1.0229952344e+05
    2.0524948835e-02    1.0226660156e+05
    2.0547885448e-02    1.0223308594e+05
    2.0570809022e-02    1.0219828906e+05
    2.0593719557e-02    1.0216190625e+05
    2.0616617054e-02    1.0212325000e+05
    2.0639499649e-02    1.0207928906e+05
    2.0662369207e-02    1.0204411719e+05
    2.0685223863e-02    1.0200240625e+05
    2.0708063617e-02    1.0196135156e+05
    2.0730890334e-02    1.0192956250e+05
    2.0753700286e-02    1.0189722656e+05
    2.0776495337e-02    1.0187109375e+05
    2.0799275488e-02    1.0184278906e+05
    2.0822042599e-02    1.0182141406e+05
    2.0844791085e-02    1.0180518750e+05
    2.0867524669e-02    1.0179125781e+05
    2.0890241489e-02    1.0178574219e+05
    2.0912945271e-02    1.0178341406e+05
    2.0935632288e-02    1.0178258594e+05
    2.0958306268e-02    1.0179172656e+05
    2.0980965346e-02    1.0180064844e+05
    2.1003607661e-02    1.0181427344e+05
    2.1026238799e-02    1.0183782031e+05
    2.1048855036e-02    1.0186308594e+05
    2.1071458235e-02    1.0188156250e+05
    2.1094048396e-02    1.0189958594e+05
    2.1116625518e-02    1.0191566406e+05
    2.1139191464e-02    1.0193446875e+05
    2.1161744371e-02    1.0195100000e+05
    2.1184286103e-02    1.0197146875e+05
    2.1206818521e-02    1.0198787500e+05
    2.1229337901e-02    1.0199928906e+05
    2.1251846105e-02    1.0200600781e+05
    2.1274344996e-02    1.0201053125e+05
    2.1296832711e-02    1.0201161719e+05
    2.1319312975e-02    1.0201177344e+05
    2.1341778338e-02    1.0202075781e+05
    2.1364232525e-02    1.0201985156e+05
    2.1386675537e-02    1.0201666406e+05
    2.1409107372e-02    1.0201711719e+05
    2.1431528032e-02    1.0200727344e+05
    2.1453931928e-02    1.0200094531e+05
    2.1476324648e-02    1.0199410156e+05
    2.1498700604e-02    1.0199121094e+05
    2.1521063522e-02    1.0198750781e+05
    2.1543409675e-02    1.0198274219e+05
    2.1565740928e-02    1.0197363281e+05
    2.1588053554e-02    1.0196389844e+05
    2.1610351279e-02    1.0195871875e+05
    2.1632634103e-02    1.0195271094e+05
    2.1654898301e-02    1.0194646875e+05
    2.1677147597e-02    1.0194047656e+05
    2.1699378267e-02    1.0193386719e+05
    2.1721594036e-02    1.0192344531e+05
    2.1743793041e-02    1.0191677344e+05
    2.1765975282e-02    1.0190885156e+05
    2.1788140759e-02    1.0189112500e+05
    2.1810289472e-02    1.0188147656e+05
    2.1832419559e-02    1.0187241406e+05
    2.1854531020e-02    1.0186980469e+05
    2.1876627579e-02    1.0186868750e+05
    2.1898705512e-02    1.0186321094e+05
    2.1920768544e-02    1.0185310156e+05
    2.1942811087e-02    1.0184763281e+05
    2.1964838728e-02    1.0184685156e+05
    2.1986849606e-02    1.0184406250e+05
    2.2008845583e-02    1.0184147656e+05
    2.2030822933e-02    1.0183739844e+05
    2.2052785382e-02    1.0183427344e+05
    2.2074732929e-02    1.0183669531e+05
    2.2096665576e-02    1.0183266406e+05
    2.2118583322e-02    1.0182878906e+05
    2.2140489891e-02    1.0182428125e+05
    2.2162377834e-02    1.0182028125e+05
    2.2184254602e-02    1.0181655469e+05
    2.2206118330e-02    1.0180778125e+05
    2.2227969021e-02    1.0179941406e+05
    2.2249806672e-02    1.0179433594e+05
    2.2271629423e-02    1.0178850000e+05
    2.2293440998e-02    1.0178255469e+05
    2.2315241396e-02    1.0177518750e+05
    2.2337028757e-02    1.0176866406e+05
    2.2358803079e-02    1.0176025000e+05
    2.2380566224e-02    1.0175035156e+05
    2.2402318195e-02    1.0174096094e+05
    2.2424057126e-02    1.0173406250e+05
    2.2445784882e-02    1.0172362500e+05
    2.2467501462e-02    1.0171621094e+05
    2.2489206865e-02    1.0171871094e+05
    2.2510899231e-02    1.0171313281e+05
    2.2532582283e-02    1.0170840625e+05
    2.2554252297e-02    1.0170787500e+05
    2.2575911134e-02    1.0170675781e+05
    2.2597560659e-02    1.0170047656e+05
    2.2619199008e-02    1.0169521875e+05
    2.2640828043e-02    1.0168928906e+05
    2.2662445903e-02    1.0168853906e+05
    2.2684050724e-02    1.0168937500e+05
    2.2705646232e-02    1.0168466406e+05
    2.2727232426e-02    1.0168089844e+05
    2.2748809308e-02    1.0168090625e+05
    2.2770375013e-02    1.0167746094e+05
    2.2791929543e-02    1.0166786719e+05
    2.2813472897e-02    1.0166343750e+05
    2.2835006937e-02    1.0165607031e+05
    2.2856531665e-02    1.0164282031e+05
    2.2878047079e-02    1.0163739844e+05
    2.2899549454e-02    1.0163191406e+05
    2.2921044379e-02    1.0162553125e+05
    2.2942528129e-02    1.0161943750e+05
    2.2964000702e-02    1.0161374219e+05
    2.2985465825e-02    1.0160392969e+05
    2.3006917909e-02    1.0159258594e+05
    2.3028360680e-02    1.0158574219e+05
    2.3049792275e-02    1.0158014844e+05
    2.3071214557e-02    1.0157471875e+05
    2.3092625663e-02    1.0156960156e+05
    2.3114029318e-02    1.0156594531e+05
    2.3135419935e-02    1.0156160156e+05
    2.3156799376e-02    1.0155822656e+05
    2.3178169504e-02    1.0154658594e+05
    2.3199530318e-02    1.0154541406e+05
    2.3220879957e-02    1.0154185156e+05
    2.3242218420e-02    1.0153987500e+05
    2.3263547570e-02    1.0154361719e+05
    2.3284865543e-02    1.0154327344e+05
    2.3306174204e-02    1.0154691406e+05
    2.3327469826e-02    1.0154928125e+05
    2.3348756135e-02    1.0155243750e+05
    2.3370031267e-02    1.0156334375e+05
    2.3391297087e-02    1.0156714844e+05
    2.3412553594e-02    1.0158150781e+05
    2.3433798924e-02    1.0158608594e+05
    2.3455033079e-02    1.0159172656e+05
    2.3476256058e-02    1.0159802344e+05
    2.3497469723e-02    1.0161146094e+05
    2.3518672213e-02    1.0161875781e+05
    2.3539865389e-02    1.0162980469e+05
    2.3561049253e-02    1.0164669531e+05
    2.3582221940e-02    1.0165243750e+05
    2.3603385314e-02    1.0165874219e+05
    2.3624535650e-02    1.0166403125e+05
    2.3645676672e-02    1.0166202344e+05
    2.3666808382e-02    1.0166387500e+05
    2.3687927052e-02    1.0166041406e+05
    2.3709038273e-02    1.0165505469e+05
    2.3730138317e-02    1.0165191406e+05
    2.3751227185e-02    1.0163966406e+05
    2.3772306740e-02    1.0162431250e+05
    2.3793375120e-02    1.0161808594e+05
    2.3814432323e-02    1.0160027344e+05
    2.3835480213e-02    1.0158347656e+05
    2.3856516927e-02    1.0156764844e+05
    2.3877544329e-02    1.0155308594e+05
    2.3898560554e-02    1.0153072656e+05
    2.3919565603e-02    1.0151797656e+05
    2.3940561339e-02    1.0150050000e+05
    2.3961545900e-02    1.0148822656e+05
    2.3982519284e-02    1.0147139844e+05
    2.4003483355e-02    1.0146003906e+05
    2.4024436250e-02    1.0144513281e+05
    2.4045377970e-02    1.0143978906e+05
    2.4066310376e-02    1.0143294531e+05
    2.4087233469e-02    1.0143621094e+05
    2.4108145386e-02    1.0143800781e+05
    2.4129044265e-02    1.0144553906e+05
    2.4149935693e-02    1.0144568750e+05
    2.4170814082e-02    1.0145653125e+05
    2.4191683158e-02    1.0145817969e+05
    2.4212542921e-02    1.0147068750e+05
    2.4233391508e-02    1.0148235156e+05
    2.4254228920e-02    1.0149435156e+05
    2.4275057018e-02    1.0150959375e+05
    2.4295873940e-02    1.0152713281e+05
    2.4316681549e-02    1.0154836719e+05
    2.4337477982e-02    1.0157237500e+05
    2.4358265102e-02    1.0158594531e+05
    2.4379042909e-02    1.0159878906e+05
    2.4399809539e-02    1.0161225781e+05
    2.4420566857e-02    1.0163007031e+05
    2.4441312999e-02    1.0163865625e+05
    2.4462047964e-02    1.0165621875e+05
    2.4482775480e-02    1.0167478125e+05
    2.4503491819e-02    1.0168422656e+05
    2.4524198845e-02    1.0169296094e+05
    2.4544894695e-02    1.0170086719e+05
    2.4565581232e-02    1.0170919531e+05
    2.4586258456e-02    1.0171737500e+05
    2.4606924504e-02    1.0172611719e+05
    2.4627581239e-02    1.0172830469e+05
    2.4648228660e-02    1.0172611719e+05
    2.4668866768e-02    1.0172271094e+05
    2.4689495564e-02    1.0171846875e+05
    2.4710113183e-02    1.0170878125e+05
    2.4730721489e-02    1.0170085156e+05
    2.4751318619e-02    1.0168671094e+05
    2.4771906435e-02    1.0167328906e+05
    2.4792486802e-02    1.0164908594e+05
    2.4813055992e-02    1.0162691406e+05
    2.4833614007e-02    1.0160185156e+05
    2.4854162708e-02    1.0157511719e+05
    2.4874702096e-02    1.0154219531e+05
    2.4895232171e-02    1.0151203125e+05
    2.4915752932e-02    1.0147286719e+05
    2.4936262518e-02    1.0144311719e+05
    2.4956764653e-02    1.0140878125e+05
    2.4977253750e-02    1.0138346094e+05
    2.4997735396e-02    1.0136494531e+05
    2.5018205866e-02    1.0134702344e+05
    2.5038668886e-02    1.0134318750e+05
    2.5059120730e-02    1.0133627344e+05
    2.5079563260e-02    1.0133985156e+05
    2.5099996477e-02    1.0135496875e+05
    2.5120420381e-02    1.0136842969e+05
    2.5140833110e-02    1.0138925000e+05
    2.5161236525e-02    1.0141772656e+05
    2.5181630626e-02    1.0144549219e+05
    2.5202017277e-02    1.0147513281e+05
    2.5222390890e-02    1.0150881250e+05
    2.5242757052e-02    1.0154117969e+05
    2.5263112038e-02    1.0157078906e+05
    2.5283459574e-02    1.0159740625e+05
    2.5303795934e-02    1.0163057031e+05
    2.5324124843e-02    1.0165592969e+05
    2.5344440714e-02    1.0168283594e+05
    2.5364749134e-02    1.0170458594e+05
    2.5385048240e-02    1.0172671875e+05
    2.5405339897e-02    1.0174669531e+05
    2.5425618514e-02    1.0175688281e+05
    2.5445887819e-02    1.0177363281e+05
    2.5466147810e-02    1.0179130469e+05
    2.5486400351e-02    1.0180872656e+05
    2.5506639853e-02    1.0182403906e+05
    2.5526873767e-02    1.0183372656e+05
    2.5547094643e-02    1.0184328125e+05
    2.5567308068e-02    1.0185716406e+05
    2.5587510318e-02    1.0187105469e+05
    2.5607703254e-02    1.0187510156e+05
    2.5627886876e-02    1.0188302344e+05
    2.5648061186e-02    1.0189366406e+05
    2.5668226182e-02    1.0190290625e+05
    2.5688380003e-02    1.0191546094e+05
    2.5708526373e-02    1.0192663281e+05
    2.5728661567e-02    1.0192931250e+05
    2.5748789310e-02    1.0193925781e+05
    2.5768904015e-02    1.0194259375e+05
    2.5789011270e-02    1.0194249219e+05
    2.5809109211e-02    1.0194374219e+05
    2.5829195976e-02    1.0194287500e+05
    2.5849273428e-02    1.0194463281e+05
    2.5869343430e-02    1.0194263281e+05
    2.5889402255e-02    1.0194475781e+05
    2.5909451768e-02    1.0194664844e+05
    2.5929493830e-02    1.0194215625e+05
    2.5949522853e-02    1.0193975000e+05
    2.5969544426e-02    1.0193608594e+05
    2.5989556685e-02    1.0192894531e+05
    2.6009559631e-02    1.0193121094e+05
    2.6029553264e-02    1.0192799219e+05
    2.6049537584e-02    1.0192528125e+05
    2.6069512591e-02    1.0192199219e+05
    2.6089478284e-02    1.0191833594e+05
    2.6109432802e-02    1.0191747656e+05
    2.6129379869e-02    1.0191103906e+05
    2.6149315760e-02    1.0190574219e+05
    2.6169244200e-02    1.0190271875e+05
    2.6189163327e-02    1.0190128906e+05
    2.6209073141e-02    1.0189828906e+05
    2.6228975505e-02    1.0188613281e+05
    2.6248866692e-02    1.0187796875e+05
    2.6268748567e-02    1.0186964844e+05
    2.6288621128e-02    1.0186474219e+05
    2.6308484375e-02    1.0186097656e+05
    2.6328338310e-02    1.0186040625e+05
    2.6348184794e-02    1.0185669531e+05
    2.6368021965e-02    1.0184725000e+05
    2.6387847960e-02    1.0184153906e+05
    2.6407664642e-02    1.0183607031e+05
    2.6427472010e-02    1.0182178906e+05
    2.6447271928e-02    1.0181789844e+05
    2.6467062533e-02    1.0181778125e+05
    2.6486843824e-02    1.0181714844e+05
    2.6506617665e-02    1.0181258594e+05
    2.6526380330e-02    1.0180672656e+05
    2.6546133682e-02    1.0179977344e+05
    2.6565877721e-02    1.0179958594e+05
    2.6585612446e-02    1.0179512500e+05
    2.6605339721e-02    1.0179359375e+05
    2.6625057682e-02    1.0179707031e+05
    2.6644766331e-02    1.0179419531e+05
    2.6664465666e-02    1.0179152344e+05
    2.6684155688e-02    1.0179075000e+05
    2.6703836396e-02    1.0178828906e+05
    2.6723509654e-02    1.0179172656e+05
    2.6743173599e-02    1.0179389844e+05
    2.6762828231e-02    1.0179039844e+05
    2.6782475412e-02    1.0178782031e+05
    2.6802113280e-02    1.0178408594e+05
    2.6821739972e-02    1.0178094531e+05
    2.6841359213e-02    1.0177755469e+05
    2.6860967278e-02    1.0178392969e+05
    2.6880569756e-02    1.0178506250e+05
    2.6900164783e-02    1.0178428906e+05
    2.6919748634e-02    1.0178911719e+05
    2.6939325035e-02    1.0178941406e+05
    2.6958892122e-02    1.0178987500e+05
    2.6978449896e-02    1.0179434375e+05
    2.6997998357e-02    1.0179452344e+05
    2.7017539367e-02    1.0179421875e+05
    2.7037071064e-02    1.0179524219e+05
    2.7056595311e-02    1.0179828906e+05
    2.7076110244e-02    1.0180716406e+05
    2.7095617726e-02    1.0180775781e+05
    2.7115115896e-02    1.0181077344e+05
    2.7134604752e-02    1.0181228906e+05
    2.7154086158e-02    1.0181756250e+05
    2.7173558250e-02    1.0182187500e+05
    2.7193021029e-02    1.0182896094e+05
    2.7212476358e-02    1.0183111719e+05
    2.7231922373e-02    1.0183447656e+05
    2.7251357213e-02    1.0183678906e+05
    2.7270786464e-02    1.0183989844e+05
    2.7290204540e-02    1.0184272656e+05
    2.7309613302e-02    1.0185119531e+05
    2.7329014614e-02    1.0185921094e+05
    2.7348404750e-02    1.0186180469e+05
    2.7367785573e-02    1.0186661719e+05
    2.7387158945e-02    1.0186907031e+05
    2.7406521142e-02    1.0187372656e+05
    2.7425874025e-02    1.0187658594e+05
    2.7445219457e-02    1.0187935156e+05
    2.7464553714e-02    1.0188253906e+05
    2.7483878657e-02    1.0187535156e+05
    2.7503194287e-02    1.0188877344e+05
    2.7522502467e-02    1.0188964844e+05
    2.7541799471e-02    1.0189271094e+05
    2.7561087161e-02    1.0189253906e+05
    2.7580365539e-02    1.0188771094e+05
    2.7599634603e-02    1.0189428125e+05
    2.7618894354e-02    1.0190030469e+05
    2.7638144791e-02    1.0189365625e+05
    2.7657385916e-02    1.0189485156e+05
    2.7676619589e-02    1.0189878125e+05
    2.7695843950e-02    1.0189917969e+05
    2.7715058997e-02    1.0190052344e+05
    2.7734262869e-02    1.0190278906e+05
    2.7753459290e-02    1.0190385156e+05
    2.7772648260e-02    1.0190533594e+05
    2.7791827917e-02    1.0190660156e+05
    2.7810998261e-02    1.0190839844e+05
    2.7830159292e-02    1.0190311719e+05
    2.7849311009e-02    1.0190505469e+05
    2.7868455276e-02    1.0190708594e+05
    2.7887590230e-02    1.0191242969e+05
    2.7906717733e-02    1.0191452344e+05
    2.7925835922e-02    1.0191600000e+05
    2.7944946662e-02    1.0191753125e+05
    2.7964048088e-02    1.0191961719e+05
    2.7983140200e-02    1.0192233594e+05
    2.8002224863e-02    1.0192396094e+05
    2.8021300212e-02    1.0192499219e+05
    2.8040368110e-02    1.0192771875e+05
    2.8059426695e-02    1.0192928906e+05
    2.8078475967e-02    1.0192960156e+05
    2.8097519651e-02    1.0193162500e+05
    2.8116554022e-02    1.0193364844e+05
    2.8135580942e-02    1.0193452344e+05
    2.8154598549e-02    1.0193638281e+05
    2.8173606843e-02    1.0193639844e+05
    2.8192607686e-02    1.0193502344e+05
    2.8211599216e-02    1.0192887500e+05
    2.8230583295e-02    1.0193089844e+05
    2.8249559924e-02    1.0193141406e+05
    2.8268527240e-02    1.0194135156e+05
    2.8287487105e-02    1.0193884375e+05
    2.8306435794e-02    1.0193484375e+05
    2.8325378895e-02    1.0193583594e+05
    2.8344312683e-02    1.0193653125e+05
    2.8363237157e-02    1.0193250781e+05
    2.8382156044e-02    1.0193209375e+05
    2.8401065618e-02    1.0193317969e+05
    2.8419965878e-02    1.0192757031e+05
    2.8438858688e-02    1.0192821875e+05
    2.8457742184e-02    1.0192463281e+05
    2.8476616368e-02    1.0192210156e+05
    2.8495483100e-02    1.0192613281e+05
    2.8514338657e-02    1.0192614844e+05
    2.8533160686e-02    1.0192614844e+05
    2.8551930562e-02    1.0192050781e+05
    2.8570635244e-02    1.0192050781e+05
    2.8589271009e-02    1.0191759375e+05
    2.8607837856e-02    1.0192382031e+05
    2.8626350686e-02    1.0191927344e+05
    2.8644818813e-02    1.0191435156e+05
    2.8663259000e-02    1.0191871094e+05
    2.8681686148e-02    1.0192228906e+05
    2.8700113297e-02    1.0192252344e+05
    2.8718546033e-02    1.0191366406e+05
    2.8736986220e-02    1.0191571094e+05
    2.8755431995e-02    1.0192185156e+05
    2.8773877770e-02    1.0192121094e+05
    2.8792314231e-02    1.0192108594e+05
    2.8810730204e-02    1.0192089844e+05
    2.8829116374e-02    1.0191831250e+05
    2.8847465292e-02    1.0191808594e+05
    2.8865773231e-02    1.0191777344e+05
    2.8884036466e-02    1.0191693750e+05
    2.8902258724e-02    1.0191659375e+05
    2.8920443729e-02    1.0191562500e+05
    2.8938598931e-02    1.0191402344e+05
    2.8956729919e-02    1.0191411719e+05
    2.8974846005e-02    1.0191388281e+05
    2.8992949054e-02    1.0191322656e+05
    2.9011042789e-02    1.0191453906e+05
    2.9029129073e-02    1.0192288281e+05
    2.9047204182e-02    1.0192221094e+05
    2.9065268114e-02    1.0191772656e+05
    2.9083315283e-02    1.0191328906e+05
    2.9101338238e-02    1.0191393750e+05
    2.9119335115e-02    1.0191472656e+05
    2.9137304053e-02    1.0192438281e+05
    2.9155241325e-02    1.0192621875e+05
    2.9173148796e-02    1.0192642969e+05
    2.9191024601e-02    1.0192782031e+05
    2.9208874330e-02    1.0192864844e+05
    2.9226697981e-02    1.0193085156e+05
    2.9244501144e-02    1.0193675781e+05
    2.9262285680e-02    1.0194069531e+05
    2.9280053452e-02    1.0194496094e+05
    2.9297806323e-02    1.0195256250e+05
    2.9315544292e-02    1.0195574219e+05
    2.9333265498e-02    1.0195856250e+05
    2.9350971803e-02    1.0196146094e+05
    2.9368655756e-02    1.0196446094e+05
    2.9386319220e-02    1.0196877344e+05
    2.9403960332e-02    1.0197658594e+05
    2.9421577230e-02    1.0198111719e+05
    2.9439168051e-02    1.0198000781e+05
    2.9456734657e-02    1.0199034375e+05
    2.9474277049e-02    1.0199605469e+05
    2.9491795227e-02    1.0199903906e+05
    2.9509292915e-02    1.0199325781e+05
    2.9526771978e-02    1.0199657031e+05
    2.9544232413e-02    1.0199982031e+05
    2.9561674222e-02    1.0200306250e+05
    2.9579099268e-02    1.0200625000e+05
    2.9596509412e-02    1.0200821875e+05
    2.9613900930e-02    1.0201069531e+05
    2.9631273821e-02    1.0201240625e+05
    2.9648626223e-02    1.0201507031e+05
    2.9665958136e-02    1.0201289844e+05
    2.9683271423e-02    1.0201017969e+05
    2.9700560495e-02    1.0201085156e+05
    2.9717829078e-02    1.0201207031e+05
    2.9735075310e-02    1.0201672656e+05
    2.9752301052e-02    1.0202089844e+05
    2.9769508168e-02    1.0202634375e+05
    2.9786696658e-02    1.0202367969e+05
    2.9803866521e-02    1.0201990625e+05
    2.9821017757e-02    1.0202049219e+05
    2.9838152230e-02    1.0202213281e+05
    2.9855269939e-02    1.0201915625e+05
    2.9872370884e-02    1.0201715625e+05
    2.9889453202e-02    1.0202313281e+05
    2.9906518757e-02    1.0202658594e+05
    2.9923565686e-02    1.0202771094e+05
    2.9940593988e-02    1.0202880469e+05
    2.9957601801e-02    1.0202918750e+05
    2.9974590987e-02    1.0202383594e+05
    2.9991561547e-02    1.0202231250e+05
    3.0008511618e-02    1.0202889844e+05
    3.0025444925e-02    1.0202850000e+05
    3.0042361468e-02    1.0202932031e+05
    3.0059259385e-02    1.0202905469e+05
    3.0076142401e-02    1.0203467969e+05
    3.0093006790e-02    1.0203561719e+05
    3.0109854415e-02    1.0203886719e+05
    3.0126683414e-02    1.0203296094e+05
    3.0143497512e-02    1.0203039844e+05
    3.0160292983e-02    1.0204053906e+05
    3.0177071691e-02    1.0203853906e+05
    3.0193833634e-02    1.0203317969e+05
    3.0210576952e-02    1.0203522656e+05
    3.0227303505e-02    1.0204127344e+05
    3.0244011432e-02    1.0203458594e+05
    3.0260702595e-02    1.0203981250e+05
    3.0277376994e-02    1.0204591406e+05
    3.0294034630e-02    1.0204610156e+05
    3.0310675502e-02    1.0204217969e+05
    3.0327299610e-02    1.0203888281e+05
    3.0343905091e-02    1.0204247656e+05
    3.0360495672e-02    1.0203989844e+05
    3.0377071351e-02    1.0205102344e+05
    3.0393628404e-02    1.0205128125e+05
    3.0410168692e-02    1.0204349219e+05
    3.0426690355e-02    1.0204371875e+05
    3.0443195254e-02    1.0204960156e+05
    3.0459685251e-02    1.0205286719e+05
    3.0476156622e-02    1.0204938281e+05
    3.0492611229e-02    1.0204800000e+05
    3.0509050936e-02    1.0204890625e+05
    3.0525473878e-02    1.0204971094e+05
    3.0541881919e-02    1.0205086719e+05
    3.0558273196e-02    1.0205118750e+05
    3.0574647710e-02    1.0204258594e+05
    3.0591005459e-02    1.0204103906e+05
    3.0607348308e-02    1.0204033594e+05
    3.0623674393e-02    1.0203935156e+05
    3.0639985576e-02    1.0202889844e+05
    3.0656279996e-02    1.0202850000e+05
    3.0672557652e-02    1.0202741406e+05
    3.0688818544e-02    1.0202047656e+05
    3.0705062672e-02    1.0201452344e+05
    3.0721291900e-02    1.0201238281e+05
    3.0737506226e-02    1.0200955469e+05
    3.0753703788e-02    1.0200661719e+05
    3.0769886449e-02    1.0200396094e+05
    3.0786054209e-02    1.0199247656e+05
    3.0802207068e-02    1.0198871094e+05
    3.0818343163e-02    1.0198652344e+05
    3.0834466219e-02    1.0198247656e+05
    3.0850572512e-02    1.0197897656e+05
    3.0866663903e-02    1.0197610156e+05
    3.0882738531e-02    1.0197336719e+05
    3.0898798257e-02    1.0196912500e+05
    3.0914843082e-02    1.0196871094e+05
    3.0930871144e-02    1.0197191406e+05
    3.0946886167e-02    1.0197102344e+05
    3.0962884426e-02    1.0197860156e+05
    3.0978867784e-02    1.0197809375e+05
    3.0994836241e-02    1.0198446094e+05
    3.1010789797e-02    1.0198725781e+05
    3.1026728451e-02    1.0199242969e+05
    3.1042650342e-02    1.0199794531e+05
    3.1058559194e-02    1.0200756250e+05
    3.1074455008e-02    1.0201083594e+05
    3.1090334058e-02    1.0202038281e+05
    3.1106200069e-02    1.0202450781e+05
    3.1122051179e-02    1.0203140625e+05
    3.1137887388e-02    1.0204077344e+05
    3.1153710559e-02    1.0204580469e+05
    3.1169516966e-02    1.0204981250e+05
    3.1185310334e-02    1.0205391406e+05
    3.1201090664e-02    1.0205819531e+05
    3.1216854230e-02    1.0206735156e+05
    3.1232602894e-02    1.0207587500e+05
    3.1248336658e-02    1.0207999219e+05
    3.1264055520e-02    1.0208468750e+05
    3.1279761344e-02    1.0208277344e+05
    3.1295452267e-02    1.0208527344e+05
    3.1311132014e-02    1.0208925000e+05
    3.1326796860e-02    1.0209253125e+05
    3.1342446804e-02    1.0209619531e+05
    3.1358085573e-02    1.0209533594e+05
    3.1373709440e-02    1.0209399219e+05
    3.1389318407e-02    1.0209608594e+05
    3.1404916197e-02    1.0209865625e+05
    3.1420499086e-02    1.0210172656e+05
    3.1436067075e-02    1.0210466406e+05
    3.1451620162e-02    1.0210774219e+05
    3.1467158347e-02    1.0210016406e+05
    3.1482685357e-02    1.0210197656e+05
    3.1498193741e-02    1.0210356250e+05
    3.1513694674e-02    1.0210247656e+05
    3.1529176980e-02    1.0209668750e+05
    3.1544648111e-02    1.0209761719e+05
    3.1560108066e-02    1.0209863281e+05
    3.1575553119e-02    1.0210441406e+05
    3.1590986997e-02    1.0210910156e+05
    3.1606405973e-02    1.0211035156e+05
    3.1621813774e-02    1.0210286719e+05
    3.1637206674e-02    1.0210328125e+05
    3.1652588397e-02    1.0210425781e+05
    3.1667951494e-02    1.0210519531e+05
    3.1683307141e-02    1.0210653125e+05
    3.1698647887e-02    1.0210646875e+05
    3.1713977456e-02    1.0210194531e+05
    3.1729292125e-02    1.0209722656e+05
    3.1744595617e-02    1.0209772656e+05
    3.1759884208e-02    1.0208644531e+05
    3.1775161624e-02    1.0208521094e+05
    3.1790427864e-02    1.0208432031e+05
    3.1805675477e-02    1.0208219531e+05
    3.1820915639e-02    1.0208049219e+05
    3.1836140901e-02    1.0207286719e+05
    3.1851354986e-02    1.0206706250e+05
    3.1866557896e-02    1.0206341406e+05
    3.1881745905e-02    1.0206078906e+05
    3.1896922737e-02    1.0205808594e+05
    3.1912088394e-02    1.0205524219e+05
    3.1927239150e-02    1.0204890625e+05
    3.1942378730e-02    1.0204896094e+05
    3.1957507133e-02    1.0204675781e+05
    3.1972620636e-02    1.0204414844e+05
    3.1987726688e-02    1.0204178906e+05
    3.2002814114e-02    1.0204441406e+05
    3.2017890364e-02    1.0204827344e+05
    3.2032959163e-02    1.0204549219e+05
    3.2048013061e-02    1.0204496094e+05
    3.2063052058e-02    1.0203621875e+05
    3.2078083605e-02    1.0203325000e+05
    3.2093103975e-02    1.0203197656e+05
    3.2108109444e-02    1.0203083594e+05
    3.2123107463e-02    1.0202821094e+05
    3.2138090581e-02    1.0203717969e+05
    3.2153062522e-02    1.0203600781e+05
    3.2168023288e-02    1.0203478906e+05
    3.2182972878e-02    1.0203343750e+05
    3.2197911292e-02    1.0202686719e+05
    3.2212834805e-02    1.0203085156e+05
    3.2227750868e-02    1.0202975781e+05
    3.2242652029e-02    1.0202988281e+05
    3.2257542014e-02    1.0202892969e+05
    3.2272424549e-02    1.0202867969e+05
    3.2287292182e-02    1.0202743750e+05
    3.2302148640e-02    1.0202746875e+05
    3.2316997647e-02    1.0203346875e+05
    3.2331831753e-02    1.0203558594e+05
    3.2346658409e-02    1.0203617969e+05
    3.2361470163e-02    1.0203571094e+05
    3.2376270741e-02    1.0203700781e+05
    3.2391063869e-02    1.0203616406e+05
    3.2405842096e-02    1.0203771094e+05
    3.2420612872e-02    1.0203753125e+05
    3.2435368747e-02    1.0203850000e+05
    3.2450113446e-02    1.0203885156e+05
    3.2464850694e-02    1.0203916406e+05
    3.2479573041e-02    1.0203946875e+05
    3.2494287938e-02    1.0203937500e+05
    3.2508991659e-02    1.0204006250e+05
    3.2523684204e-02    1.0204956250e+05
    3.2538365573e-02    1.0205122656e+05
    3.2553035766e-02    1.0205291406e+05
    3.2567698509e-02    1.0205172656e+05
    3.2582346350e-02    1.0204757031e+05
    3.2596986741e-02    1.0204610156e+05
    3.2611619681e-02    1.0204697656e+05
    3.2626237720e-02    1.0205661719e+05
    3.2640848309e-02    1.0205783594e+05
    3.2655447721e-02    1.0205913281e+05
    3.2670035958e-02    1.0205983594e+05
    3.2684613019e-02    1.0206033594e+05
    3.2699178904e-02    1.0205250000e+05
    3.2713737339e-02    1.0205416406e+05
    3.2728284597e-02    1.0205402344e+05
    3.2742820680e-02    1.0205434375e+05
    3.2757349312e-02    1.0205477344e+05
    3.2771866769e-02    1.0205521094e+05
    3.2786373049e-02    1.0205567969e+05
    3.2800871879e-02    1.0205859375e+05
    3.2815355808e-02    1.0206041406e+05
    3.2829832286e-02    1.0205862500e+05
    3.2844301313e-02    1.0205987500e+05
    3.2858755440e-02    1.0205902344e+05
    3.2873202115e-02    1.0205885156e+05
    3.2887637615e-02    1.0206214844e+05
    3.2902065665e-02    1.0206096094e+05
    3.2916482538e-02    1.0206302344e+05
    3.2930891961e-02    1.0206389844e+05
    3.2945290208e-02    1.0206475000e+05
    3.2959677279e-02    1.0206440625e+05
    3.2974056900e-02    1.0206625781e+05
    3.2988425344e-02    1.0206688281e+05
    3.3002786338e-02    1.0206624219e+05
    3.3017136157e-02    1.0206721094e+05
    3.3031478524e-02    1.0206805469e+05
    3.3045809716e-02    1.0206813281e+05
    3.3060129732e-02    1.0206010156e+05
    3.3074442297e-02    1.0205874219e+05
    3.3088747412e-02    1.0206657031e+05
    3.3103041351e-02    1.0206630469e+05
    3.3117324114e-02    1.0205911719e+05
    3.3131599426e-02    1.0205625781e+05
    3.3145863563e-02    1.0205452344e+05
    3.3160120249e-02    1.0205514844e+05
    3.3174365759e-02    1.0205467969e+05
    3.3188603818e-02    1.0205433594e+05
    3.3202830702e-02    1.0205391406e+05
    3.3217050135e-02    1.0205231250e+05
    3.3231258392e-02    1.0205171094e+05
    3.3245459199e-02    1.0204978125e+05
    3.3259648830e-02    1.0204647656e+05
    3.3273831010e-02    1.0204042969e+05
    3.3288005739e-02    1.0203771094e+05
    3.3302169293e-02    1.0203592969e+05
    3.3316325396e-02    1.0203394531e+05
    3.3330474049e-02    1.0203185156e+05
    3.3344611526e-02    1.0202513281e+05
    3.3358741552e-02    1.0202396094e+05
    3.3372864127e-02    1.0202150000e+05
    3.3386975527e-02    1.0201966406e+05
    3.3401079476e-02    1.0200983594e+05
    3.3415172249e-02    1.0201247656e+05
    3.3429257572e-02    1.0201403125e+05
    3.3443335444e-02    1.0200702344e+05
    3.3457405865e-02    1.0200053125e+05
    3.3471468836e-02    1.0199746094e+05
    3.3485524356e-02    1.0199497656e+05
    3.3499568701e-02    1.0199137500e+05
    3.3513605595e-02    1.0198907031e+05
    3.3527631313e-02    1.0198737500e+05
    3.3541653305e-02    1.0198566406e+05
    3.3555664122e-02    1.0198458594e+05
    3.3569667488e-02    1.0198241406e+05
    3.3583663404e-02    1.0198027344e+05
    3.3597648144e-02    1.0197814844e+05
    3.3611625433e-02    1.0197718750e+05
    3.3625595272e-02    1.0197850781e+05
    3.3639557660e-02    1.0197641406e+05
    3.3653512597e-02    1.0197960156e+05
    3.3667460084e-02    1.0197810156e+05
    3.3681396395e-02    1.0197607031e+05
    3.3695328981e-02    1.0197411719e+05
    3.3709254116e-02    1.0197156250e+05
    3.3723168075e-02    1.0197025781e+05
    3.3737078309e-02    1.0196842969e+05
    3.3750977367e-02    1.0196677344e+05
    3.3764872700e-02    1.0196528125e+05
    3.3778760582e-02    1.0196397656e+05
    3.3792637289e-02    1.0196633594e+05
    3.3806510270e-02    1.0196774219e+05
    3.3820372075e-02    1.0196721094e+05
    3.3834230155e-02    1.0197152344e+05
    3.3848077059e-02    1.0197244531e+05
    3.3861916512e-02    1.0197236719e+05
    3.3875752240e-02    1.0197228906e+05
    3.3889576793e-02    1.0197225781e+05
    3.3903393894e-02    1.0197327344e+05
    3.3917203546e-02    1.0197244531e+05
    3.3931009471e-02    1.0197152344e+05
    3.3944804221e-02    1.0196658594e+05
    3.3958595246e-02    1.0197050000e+05
    3.3972378820e-02    1.0196932031e+05
    3.3986151218e-02    1.0196234375e+05
    3.3999919891e-02    1.0196163281e+05
    3.4013681114e-02    1.0196500000e+05
    3.4027434886e-02    1.0196740625e+05
    3.4041177481e-02    1.0196691406e+05
    3.4054916352e-02    1.0196300000e+05
    3.4068647772e-02    1.0195661719e+05
    3.4082375467e-02    1.0195594531e+05
    3.4096091986e-02    1.0195584375e+05
    3.4109804779e-02    1.0195694531e+05
    3.4123510122e-02    1.0195865625e+05
    3.4137208015e-02    1.0195371875e+05
    3.4150898457e-02    1.0195507031e+05
    3.4164581448e-02    1.0195636719e+05
    3.4178260714e-02    1.0195589844e+05
    3.4191932529e-02    1.0195058594e+05
    3.4205596894e-02    1.0194975000e+05
    3.4219253808e-02    1.0194989844e+05
    3.4232903272e-02    1.0194540625e+05
    3.4246545285e-02    1.0194343750e+05
    3.4260183573e-02    1.0193675781e+05
    3.4273810685e-02    1.0193587500e+05
    3.4287434071e-02    1.0193786719e+05
    3.4301050007e-02    1.0194071875e+05
    3.4314658493e-02    1.0193953906e+05
    3.4328263253e-02    1.0193833594e+05
    3.4341860563e-02    1.0193824219e+05
    3.4355450422e-02    1.0193578906e+05
    3.4369036555e-02    1.0193439844e+05
    3.4382611513e-02    1.0192844531e+05
    3.4396182746e-02    1.0192571875e+05
    3.4409742802e-02    1.0192405469e+05
    3.4423299134e-02    1.0191878906e+05
    3.4436848015e-02    1.0191592969e+05
    3.4450393170e-02    1.0191647656e+05
    3.4463927150e-02    1.0191819531e+05
    3.4477461129e-02    1.0191665625e+05
    3.4490987659e-02    1.0191862500e+05
    3.4504506737e-02    1.0191265625e+05
    3.4518022090e-02    1.0191108594e+05
    3.4531529993e-02    1.0190472656e+05
    3.4545030445e-02    1.0190303125e+05
    3.4558523446e-02    1.0190362500e+05
    3.4572008997e-02    1.0189952344e+05
    3.4585487098e-02    1.0189781250e+05
    3.4598957747e-02    1.0189606250e+05
    3.4612424672e-02    1.0189436719e+05
    3.4625884145e-02    1.0189271094e+05
    3.4639336169e-02    1.0189102344e+05
    3.4652780741e-02    1.0188925781e+05
    3.4666225314e-02    1.0188743750e+05
    3.4679658711e-02    1.0188492969e+05
    3.4693088382e-02    1.0188218750e+05
    3.4706510603e-02    1.0187521875e+05
    3.4719929099e-02    1.0186771094e+05
    3.4733340144e-02    1.0186471875e+05
    3.4746743739e-02    1.0186115625e+05
    3.4760143608e-02    1.0186115625e+05
    3.4773536026e-02    1.0186537500e+05
    3.4786924720e-02    1.0186283594e+05
    3.4800305963e-02    1.0186150781e+05
    3.4813679755e-02    1.0185906250e+05
    3.4827046096e-02    1.0184974219e+05
    3.4840408713e-02    1.0184485156e+05
    3.4853763878e-02    1.0184684375e+05
    3.4867111593e-02    1.0184569531e+05
    3.4880455583e-02    1.0184691406e+05
    3.4893795848e-02    1.0184478906e+05
    3.4907124937e-02    1.0184393750e+05
    3.4920454025e-02    1.0184313281e+05
    3.4933775663e-02    1.0184125781e+05
    3.4947093576e-02    1.0183587500e+05
    3.4960404038e-02    1.0183885156e+05
    3.4973710775e-02    1.0183721875e+05
    3.4987010062e-02    1.0183567969e+05
endcurve
