Curveplot
LS-DYNA keyword deck by LS-PrePost                          
Time
Pressure
Defined Connection
Pressure @ 72 #pts=1745
* Minval=     9.9475351562e+04 at time=         0.0164424796
* Maxval=     1.6752132812e+05 at time=         0.0072723543
    0.0000000000e+00    9.9999093750e+04
    3.3812357287e-05    9.9999093750e+04
    6.1326652940e-05    9.9996898438e+04
    8.9102875791e-05    9.9999242188e+04
    1.1682785407e-04    9.9999460938e+04
    1.4461828687e-04    9.9999812500e+04
    1.7236733402e-04    9.9998062500e+04
    2.0016246708e-04    1.0000896094e+05
    2.2795486439e-04    1.0000159375e+05
    2.5574557367e-04    1.0000159375e+05
    2.8353667585e-04    1.0000010156e+05
    3.1133697485e-04    9.9989351562e+04
    3.3912662184e-04    1.0000047656e+05
    3.6691734567e-04    1.0000066406e+05
    3.9470891352e-04    9.9999945312e+04
    4.2249175021e-04    1.0000564844e+05
    4.5027161832e-04    1.0000103125e+05
    4.7804549104e-04    1.0000244531e+05
    5.0581363030e-04    1.0000246875e+05
    5.3357944125e-04    1.0000110156e+05
    5.6134146871e-04    9.9992054688e+04
    5.8909942163e-04    9.9994476562e+04
    6.1685312539e-04    9.9999835938e+04
    6.4460188150e-04    1.0000558594e+05
    6.7234638846e-04    1.0000249219e+05
    7.0008635521e-04    1.0000232031e+05
    7.2782178177e-04    9.9997335938e+04
    7.5555208605e-04    9.9997054688e+04
    7.8327720985e-04    1.0000172656e+05
    8.1099680392e-04    1.0000467969e+05
    8.3871174138e-04    1.0000058594e+05
    8.6642213864e-04    1.0000153906e+05
    8.9412782108e-04    9.9993125000e+04
    9.2182843946e-04    9.9999570312e+04
    9.4952445943e-04    1.0000071094e+05
    9.7721535712e-04    1.0000078125e+05
    1.0049008997e-03    1.0000182031e+05
    1.0325826006e-03    9.9995039062e+04
    1.0602590628e-03    1.0000221094e+05
    1.0879321489e-03    1.0001084375e+05
    1.1155996472e-03    1.0000197656e+05
    1.1432634201e-03    1.0000252344e+05
    1.1709230021e-03    9.9992250000e+04
    1.1985785095e-03    9.9991093750e+04
    1.2262313394e-03    9.9989218750e+04
    1.2538790470e-03    1.0001014844e+05
    1.2815232622e-03    1.0001177344e+05
    1.3091630535e-03    1.0000393750e+05
    1.3368004002e-03    9.9996460938e+04
    1.3644339051e-03    1.0000222656e+05
    1.3920635683e-03    1.0002787500e+05
    1.4196902048e-03    1.0006225781e+05
    1.4473132323e-03    1.0011108594e+05
    1.4749332331e-03    1.0019264844e+05
    1.5025498578e-03    1.0031992969e+05
    1.5301633393e-03    1.0051094531e+05
    1.5577742597e-03    1.0077112500e+05
    1.5853822697e-03    1.0109824219e+05
    1.6129877185e-03    1.0146960156e+05
    1.6405890929e-03    1.0186524219e+05
    1.6681876732e-03    1.0224927344e+05
    1.6957829939e-03    1.0259991406e+05
    1.7233766848e-03    1.0287397656e+05
    1.7509678146e-03    1.0305093750e+05
    1.7785291420e-03    1.0313685156e+05
    1.8060547300e-03    1.0313103125e+05
    1.8335470231e-03    1.0305796094e+05
    1.8610082334e-03    1.0292263281e+05
    1.8884401070e-03    1.0275496094e+05
    1.9158447394e-03    1.0258105469e+05
    1.9432241097e-03    1.0241614844e+05
    1.9705800805e-03    1.0229293750e+05
    1.9979148638e-03    1.0221109375e+05
    2.0252298564e-03    1.0218975781e+05
    2.0525271539e-03    1.0221128125e+05
    2.0798076876e-03    1.0227196094e+05
    2.1070730872e-03    1.0234971094e+05
    2.1343247499e-03    1.0242112500e+05
    2.1615643054e-03    1.0248224219e+05
    2.1887931507e-03    1.0252408594e+05
    2.2160108201e-03    1.0254381250e+05
    2.2432196420e-03    1.0254381250e+05
    2.2704207804e-03    1.0251789844e+05
    2.2976147011e-03    1.0248446094e+05
    2.3248014040e-03    1.0243814844e+05
    2.3519827519e-03    1.0240935156e+05
    2.3791582789e-03    1.0239435156e+05
    2.4063293822e-03    1.0238417969e+05
    2.4334960617e-03    1.0238822656e+05
    2.4606597144e-03    1.0239803125e+05
    2.4878205732e-03    1.0240992969e+05
    2.5149781723e-03    1.0242508594e+05
    2.5421329774e-03    1.0244203125e+05
    2.5692859199e-03    1.0244827344e+05
    2.5964374654e-03    1.0244883594e+05
    2.6235871483e-03    1.0244730469e+05
    2.6507352013e-03    1.0243622656e+05
    2.6778825559e-03    1.0242408594e+05
    2.7050296776e-03    1.0242036719e+05
    2.7321761008e-03    1.0241549219e+05
    2.7593218256e-03    1.0241532031e+05
    2.7864677832e-03    1.0242128906e+05
    2.8136142064e-03    1.0242305469e+05
    2.8407603968e-03    1.0243585156e+05
    2.8679079842e-03    1.0244521875e+05
    2.8950548731e-03    1.0246133594e+05
    2.9222022276e-03    1.0248691406e+05
    2.9493502807e-03    1.0252321094e+05
    2.9764990322e-03    1.0257216406e+05
    3.0036487151e-03    1.0263560156e+05
    3.0307997949e-03    1.0272439844e+05
    3.0579508748e-03    1.0281603906e+05
    3.0851035845e-03    1.0291383594e+05
    3.1122572254e-03    1.0302537500e+05
    3.1394117977e-03    1.0312025781e+05
    3.1665677670e-03    1.0320191406e+05
    3.1937246677e-03    1.0325858594e+05
    3.2208829653e-03    1.0330178125e+05
    3.2480424270e-03    1.0331171094e+05
    3.2752046827e-03    1.0329741406e+05
    3.2952371985e-03    1.0325709375e+05
    3.3145032357e-03    1.0322260156e+05
    3.3336398192e-03    1.0318147656e+05
    3.3528339118e-03    1.0313871094e+05
    3.3720366191e-03    1.0309950000e+05
    3.3912549261e-03    1.0305966406e+05
    3.4104890656e-03    1.0301750781e+05
    3.4297339153e-03    1.0297909375e+05
    3.4486323129e-03    1.0293072656e+05
    3.4671388566e-03    1.0288885156e+05
    3.4854323603e-03    1.0283242969e+05
    3.5036695190e-03    1.0277166406e+05
    3.5219141282e-03    1.0270437500e+05
    3.5401545465e-03    1.0262764844e+05
    3.5583588760e-03    1.0255860156e+05
    3.5765271168e-03    1.0249234375e+05
    3.5946895368e-03    1.0242853906e+05
    3.6139658187e-03    1.0237135156e+05
    3.6330535077e-03    1.0232400781e+05
    3.6521453876e-03    1.0228327344e+05
    3.6699753255e-03    1.0225214844e+05
    3.6875614896e-03    1.0223031250e+05
    3.7050142419e-03    1.0221072656e+05
    3.7224807311e-03    1.0219085156e+05
    3.7400643341e-03    1.0217789844e+05
    3.7577797193e-03    1.0216893750e+05
    3.7755726371e-03    1.0215966406e+05
    3.7933769636e-03    1.0214772656e+05
    3.8111612666e-03    1.0214077344e+05
    3.8289318327e-03    1.0213539844e+05
    3.8467168342e-03    1.0212681250e+05
    3.8645383902e-03    1.0212171094e+05
    3.8824023213e-03    1.0211178125e+05
    3.9002960548e-03    1.0209914844e+05
    3.9182156324e-03    1.0209133594e+05
    3.9361710660e-03    1.0207325781e+05
    3.9541716687e-03    1.0204805469e+05
    3.9733103476e-03    1.0203128906e+05
    3.9924201556e-03    1.0201385156e+05
    4.0104058571e-03    1.0200662500e+05
    4.0284004062e-03    1.0199505469e+05
    4.0464363992e-03    1.0198313281e+05
    4.0656095371e-03    1.0197789844e+05
    4.0847789496e-03    1.0196437500e+05
    4.1039343923e-03    1.0195886719e+05
    4.1219722480e-03    1.0194909375e+05
    4.1400394402e-03    1.0194264844e+05
    4.1591953486e-03    1.0193390625e+05
    4.1784178466e-03    1.0193149219e+05
    4.1976389475e-03    1.0192315625e+05
    4.2168586515e-03    1.0191981250e+05
    4.2360713705e-03    1.0190972656e+05
    4.2552771047e-03    1.0190063281e+05
    4.2744791135e-03    1.0189000000e+05
    4.2936825193e-03    1.0187887500e+05
    4.3128933758e-03    1.0186699219e+05
    4.3321144767e-03    1.0185331250e+05
    4.3513495475e-03    1.0183896875e+05
    4.3705995195e-03    1.0182375781e+05
    4.3898657896e-03    1.0180606250e+05
    4.4091497548e-03    1.0178021094e+05
    4.4284537435e-03    1.0175210156e+05
    4.4477786869e-03    1.0171503906e+05
    4.4671236537e-03    1.0167139844e+05
    4.4864914380e-03    1.0162036719e+05
    4.5058806427e-03    1.0155564844e+05
    4.5252908021e-03    1.0148397656e+05
    4.5447219163e-03    1.0140536719e+05
    4.5641721226e-03    1.0131969531e+05
    4.5836409554e-03    1.0122172656e+05
    4.6031279489e-03    1.0111221094e+05
    4.6226321720e-03    1.0098888281e+05
    4.6421540901e-03    1.0086569531e+05
    4.6616927721e-03    1.0073405469e+05
    4.6812482178e-03    1.0061185156e+05
    4.7008208930e-03    1.0049461719e+05
    4.7204112634e-03    1.0039475000e+05
    4.7400193289e-03    1.0030781250e+05
    4.7596455552e-03    1.0023391406e+05
    4.7792894766e-03    1.0018464844e+05
    4.7989510931e-03    1.0014778906e+05
    4.8186304048e-03    1.0014210156e+05
    4.8383255489e-03    1.0015378906e+05
    4.8580355942e-03    1.0018764844e+05
    4.8777610064e-03    1.0023327344e+05
    4.8975008540e-03    1.0029121094e+05
    4.9172551371e-03    1.0035416406e+05
    4.9370229244e-03    1.0040746094e+05
    4.9568060786e-03    1.0046816406e+05
    4.9766036682e-03    1.0053011719e+05
    4.9964170903e-03    1.0057760156e+05
    5.0162458792e-03    1.0062287500e+05
    5.0360900350e-03    1.0064871094e+05
    5.0559476949e-03    1.0066522656e+05
    5.0758207217e-03    1.0067002344e+05
    5.0957072526e-03    1.0067453906e+05
    5.1156077534e-03    1.0067041406e+05
    5.1355226897e-03    1.0066285156e+05
    5.1554525271e-03    1.0065280469e+05
    5.1753963344e-03    1.0063668750e+05
    5.1953555085e-03    1.0061466406e+05
    5.2153295837e-03    1.0059783594e+05
    5.2353194915e-03    1.0058265625e+05
    5.2553247660e-03    1.0057728906e+05
    5.2753463387e-03    1.0057385156e+05
    5.2953832783e-03    1.0057478125e+05
    5.3154369816e-03    1.0058169531e+05
    5.3355065174e-03    1.0058364844e+05
    5.3555918857e-03    1.0059238281e+05
    5.3756926209e-03    1.0059910156e+05
    5.3958082572e-03    1.0061357031e+05
    5.4159392603e-03    1.0062400781e+05
    5.4360851645e-03    1.0063791406e+05
    5.4562464356e-03    1.0064912500e+05
    5.4764230736e-03    1.0065964844e+05
    5.4966160096e-03    1.0066450781e+05
    5.5168238468e-03    1.0066382031e+05
    5.5370470509e-03    1.0066700781e+05
    5.5572865531e-03    1.0066907031e+05
    5.5775423534e-03    1.0067535156e+05
    5.5978130549e-03    1.0067643750e+05
    5.6181000546e-03    1.0067161719e+05
    5.6384028867e-03    1.0067341406e+05
    5.6587206200e-03    1.0067512500e+05
    5.6790532544e-03    1.0067714844e+05
    5.6994007900e-03    1.0067833594e+05
    5.7197632268e-03    1.0068091406e+05
    5.7401410304e-03    1.0068381250e+05
    5.7605337352e-03    1.0068697656e+05
    5.7809422724e-03    1.0069028906e+05
    5.8013652451e-03    1.0069518750e+05
    5.8218040504e-03    1.0069896094e+05
    5.8422577567e-03    1.0070290625e+05
    5.8627268299e-03    1.0071164844e+05
    5.8832112700e-03    1.0072053906e+05
    5.9037101455e-03    1.0072491406e+05
    5.9242248535e-03    1.0072339844e+05
    5.9447535314e-03    1.0072721875e+05
    5.9641525149e-03    1.0073696094e+05
    5.9830932878e-03    1.0074125000e+05
    6.0020405799e-03    1.0074571875e+05
    6.0210367665e-03    1.0075947656e+05
    6.0400799848e-03    1.0076310156e+05
    6.0591096990e-03    1.0075859375e+05
    6.0781282373e-03    1.0076321094e+05
    6.0972142965e-03    1.0077716406e+05
    6.1162756756e-03    1.0078246875e+05
    6.1353649944e-03    1.0079366406e+05
    6.1544459313e-03    1.0080412500e+05
    6.1734300107e-03    1.0081013281e+05
    6.1924448237e-03    1.0081539844e+05
    6.2115197070e-03    1.0082378125e+05
    6.2306127511e-03    1.0083052344e+05
    6.2497169711e-03    1.0084096875e+05
    6.2688281760e-03    1.0084746094e+05
    6.2879407778e-03    1.0086488281e+05
    6.3070552424e-03    1.0088180469e+05
    6.3261794858e-03    1.0089488281e+05
    6.3453060575e-03    1.0090797656e+05
    6.3644465990e-03    1.0092691406e+05
    6.3835908659e-03    1.0093835156e+05
    6.4027444459e-03    1.0095918750e+05
    6.4219115302e-03    1.0098572656e+05
    6.4410855994e-03    1.0100411719e+05
    6.4602680504e-03    1.0102633594e+05
    6.4794607460e-03    1.0104035156e+05
    6.4986641519e-03    1.0104567969e+05
    6.5178787336e-03    1.0104875781e+05
    6.5371058881e-03    1.0105547656e+05
    6.5563363023e-03    1.0106158594e+05
    6.5755699761e-03    1.0106711719e+05
    6.5948092379e-03    1.0107215625e+05
    6.6140629351e-03    1.0107181250e+05
    6.6333152354e-03    1.0106928906e+05
    6.6525745206e-03    1.0107153906e+05
    6.6718445159e-03    1.0107296094e+05
    6.6911154427e-03    1.0106908594e+05
    6.7104012705e-03    1.0106446875e+05
    6.7296870984e-03    1.0106950781e+05
    6.7489854991e-03    1.0106610156e+05
    6.7682852969e-03    1.0106675781e+05
    6.7875892855e-03    1.0106828906e+05
    6.8069072440e-03    1.0107071094e+05
    6.8262196146e-03    1.0106935156e+05
    6.8455408327e-03    1.0106678906e+05
    6.8648783490e-03    1.0106840625e+05
    6.8842126057e-03    1.0106000781e+05
    6.9035501219e-03    1.0106099219e+05
    6.9228983484e-03    1.0106603906e+05
    6.9422605447e-03    1.0107441406e+05
    6.9616222754e-03    1.0108847656e+05
    6.9809844717e-03    1.0111081250e+05
    7.0003494620e-03    1.0117975000e+05
    7.0197195746e-03    1.0131333594e+05
    7.0390999317e-03    1.0159232031e+05
    7.0584909990e-03    1.0215737500e+05
    7.0778946392e-03    1.0327068750e+05
    7.0973108523e-03    1.0534160156e+05
    7.1167377755e-03    1.0895355469e+05
    7.1361698210e-03    1.1469246875e+05
    7.1556069888e-03    1.2284527344e+05
    7.1750483476e-03    1.3303432812e+05
    7.1944966912e-03    1.4401434375e+05
    7.2139529511e-03    1.5405842188e+05
    7.2334166616e-03    1.6162234375e+05
    7.2528840974e-03    1.6603268750e+05
    7.2723543271e-03    1.6752132812e+05
    7.2918278165e-03    1.6694640625e+05
    7.3113050312e-03    1.6527520312e+05
    7.3307845742e-03    1.6332901562e+05
    7.3502692394e-03    1.6162859375e+05
    7.3697618209e-03    1.6027200000e+05
    7.3892641813e-03    1.5914410938e+05
    7.4087800458e-03    1.5805832812e+05
    7.4282912537e-03    1.5684703125e+05
    7.4477996677e-03    1.5541692188e+05
    7.4673094787e-03    1.5376515625e+05
    7.4868267402e-03    1.5198300000e+05
    7.5063589029e-03    1.5014832812e+05
    7.5258887373e-03    1.4836423438e+05
    7.5454111211e-03    1.4669195312e+05
    7.5649353676e-03    1.4515498438e+05
    7.5844703242e-03    1.4372310938e+05
    7.6040057465e-03    1.4237360938e+05
    7.6235276647e-03    1.4107404688e+05
    7.6430505142e-03    1.3980771875e+05
    7.6625877991e-03    1.3856248438e+05
    7.6821087860e-03    1.3736657812e+05
    7.7016241848e-03    1.3622103125e+05
    7.7211544849e-03    1.3514931250e+05
    7.7406810597e-03    1.3414617188e+05
    7.7602043748e-03    1.3322567188e+05
    7.7797495760e-03    1.3237498438e+05
    7.7992938459e-03    1.3157989062e+05
    7.8188432381e-03    1.3083214844e+05
    7.8384252265e-03    1.3011553906e+05
    7.8580006957e-03    1.2941027344e+05
    7.8775910661e-03    1.2872996094e+05
    7.8972103074e-03    1.2805378125e+05
    7.9168286175e-03    1.2737884375e+05
    7.9364804551e-03    1.2672024219e+05
    7.9561360180e-03    1.2606556250e+05
    7.9758102074e-03    1.2544333594e+05
    7.9955114052e-03    1.2483021875e+05
    8.0152126029e-03    1.2424492969e+05
    8.0349491909e-03    1.2367599219e+05
    8.0546662211e-03    1.2312492969e+05
    8.0743944272e-03    1.2259641406e+05
    8.0941170454e-03    1.2208996875e+05
    8.1138620153e-03    1.2161203906e+05
    8.1336386502e-03    1.2116246094e+05
    8.1534720957e-03    1.2074294531e+05
    8.1733558327e-03    1.2035062500e+05
    8.1932730973e-03    1.1998056250e+05
    8.2132071257e-03    1.1964753906e+05
    8.2330890000e-03    1.1933272656e+05
    8.2529615611e-03    1.1904302344e+05
    8.2727763802e-03    1.1877416406e+05
    8.2926023751e-03    1.1852328906e+05
    8.3124246448e-03    1.1828181250e+05
    8.3322748542e-03    1.1805368750e+05
    8.3521194756e-03    1.1782811719e+05
    8.3719678223e-03    1.1761297656e+05
    8.3917891607e-03    1.1740946875e+05
    8.4116021171e-03    1.1721602344e+05
    8.4314141423e-03    1.1703280469e+05
    8.4512168542e-03    1.1686259375e+05
    8.4710381925e-03    1.1669264844e+05
    8.4908353165e-03    1.1652835156e+05
    8.5106678307e-03    1.1637102344e+05
    8.5304882377e-03    1.1621591406e+05
    8.5503393784e-03    1.1606762500e+05
    8.5699046031e-03    1.1592739844e+05
    8.5892248899e-03    1.1579785156e+05
    8.6083402857e-03    1.1567436719e+05
    8.6272666231e-03    1.1555592969e+05
    8.6460309103e-03    1.1543996094e+05
    8.6646731943e-03    1.1532664844e+05
    8.6832325906e-03    1.1522213281e+05
    8.7017398328e-03    1.1511575000e+05
    8.7202098221e-03    1.1501947656e+05
    8.7386453524e-03    1.1492303906e+05
    8.7570473552e-03    1.1483060156e+05
    8.7753897533e-03    1.1473222656e+05
    8.7936492637e-03    1.1464086719e+05
    8.8118780404e-03    1.1454833594e+05
    8.8300397620e-03    1.1445549219e+05
    8.8481390849e-03    1.1436714844e+05
    8.8662039489e-03    1.1427088281e+05
    8.8842641562e-03    1.1417505469e+05
    8.9023411274e-03    1.1407321094e+05
    8.9204348624e-03    1.1396772656e+05
    8.9385388419e-03    1.1384989844e+05
    8.9566456154e-03    1.1373310156e+05
    8.9747514576e-03    1.1361334375e+05
    8.9928600937e-03    1.1349183594e+05
    9.0109808370e-03    1.1336566406e+05
    9.0291155502e-03    1.1323303125e+05
    9.0472688898e-03    1.1310090625e+05
    9.0654399246e-03    1.1296069531e+05
    9.0836230665e-03    1.1282340625e+05
    9.1018192470e-03    1.1268857031e+05
    9.1200266033e-03    1.1255075781e+05
    9.1382460669e-03    1.1241610156e+05
    9.1564757749e-03    1.1228475781e+05
    9.1747231781e-03    1.1216178125e+05
    9.1929892078e-03    1.1204835156e+05
    9.2112747952e-03    1.1194888281e+05
    9.2295790091e-03    1.1185581250e+05
    9.2479009181e-03    1.1177078125e+05
    9.2662386596e-03    1.1169696875e+05
    9.2845931649e-03    1.1162921875e+05
    9.3029672280e-03    1.1157234375e+05
    9.3213599175e-03    1.1152349219e+05
    9.3397712335e-03    1.1147485156e+05
    9.3582011759e-03    1.1142552344e+05
    9.3766497448e-03    1.1138093750e+05
    9.3951150775e-03    1.1133521094e+05
    9.4135999680e-03    1.1128775000e+05
    9.4321016222e-03    1.1123649219e+05
    9.4506228343e-03    1.1118446094e+05
    9.4691645354e-03    1.1112502344e+05
    9.4877239317e-03    1.1105753906e+05
    9.5063010231e-03    1.1098684375e+05
    9.5248948783e-03    1.1091269531e+05
    9.5435054973e-03    1.1083764844e+05
    9.5621328801e-03    1.1076669531e+05
    9.5807760954e-03    1.1069941406e+05
    9.5994332805e-03    1.1063417969e+05
    9.6181081608e-03    1.1057013281e+05
    9.6367979422e-03    1.1050509375e+05
    9.6555035561e-03    1.1045002344e+05
    9.6742231399e-03    1.1039702344e+05
    9.6929576248e-03    1.1034699219e+05
    9.7117051482e-03    1.1030371094e+05
    9.7304685041e-03    1.1025784375e+05
    9.7492448986e-03    1.1021760156e+05
    9.7680361941e-03    1.1017906250e+05
    9.7868405282e-03    1.1013152344e+05
    9.8056588322e-03    1.1008269531e+05
    9.8244920373e-03    1.1003346875e+05
    9.8433364183e-03    1.0998039844e+05
    9.8621929064e-03    1.0992325000e+05
    9.8810633644e-03    1.0986324219e+05
    9.8999459296e-03    1.0980628906e+05
    9.9188406020e-03    1.0974482031e+05
    9.9377483130e-03    1.0969196094e+05
    9.9566690624e-03    1.0963696875e+05
    9.9756028503e-03    1.0958993750e+05
    9.9945487455e-03    1.0954710156e+05
    1.0013507679e-02    1.0950436719e+05
    1.0032479651e-02    1.0946365625e+05
    1.0051463731e-02    1.0942172656e+05
    1.0070459917e-02    1.0938409375e+05
    1.0089469142e-02    1.0934521094e+05
    1.0108492337e-02    1.0931050781e+05
    1.0127528571e-02    1.0927772656e+05
    1.0146577843e-02    1.0924666406e+05
    1.0165639222e-02    1.0921678906e+05
    1.0184712708e-02    1.0918272656e+05
    1.0203798302e-02    1.0914202344e+05
    1.0222896002e-02    1.0909439844e+05
    1.0242006741e-02    1.0904183594e+05
    1.0261129588e-02    1.0898721094e+05
    1.0280264542e-02    1.0892760156e+05
    1.0299413465e-02    1.0886096875e+05
    1.0318575427e-02    1.0879603906e+05
    1.0337748565e-02    1.0872712500e+05
    1.0356934741e-02    1.0865572656e+05
    1.0376133956e-02    1.0858553906e+05
    1.0395346209e-02    1.0850891406e+05
    1.0414571501e-02    1.0842771094e+05
    1.0433809832e-02    1.0834921094e+05
    1.0453061201e-02    1.0827603125e+05
    1.0472324677e-02    1.0820489844e+05
    1.0491601191e-02    1.0813159375e+05
    1.0510892607e-02    1.0805337500e+05
    1.0530196130e-02    1.0797702344e+05
    1.0549513623e-02    1.0790083594e+05
    1.0568842292e-02    1.0782703906e+05
    1.0588183999e-02    1.0776096094e+05
    1.0607538745e-02    1.0769578906e+05
    1.0626907460e-02    1.0763164844e+05
    1.0646289214e-02    1.0757381250e+05
    1.0665684007e-02    1.0751633594e+05
    1.0685092770e-02    1.0745878906e+05
    1.0704516433e-02    1.0739956250e+05
    1.0723951273e-02    1.0735205469e+05
    1.0743400082e-02    1.0729318750e+05
    1.0762862861e-02    1.0723712500e+05
    1.0782338679e-02    1.0718002344e+05
    1.0801829398e-02    1.0712316406e+05
    1.0821334086e-02    1.0706762500e+05
    1.0840852745e-02    1.0701178906e+05
    1.0860386305e-02    1.0695471094e+05
    1.0879932903e-02    1.0690853906e+05
    1.0899493471e-02    1.0685897656e+05
    1.0919069871e-02    1.0681203125e+05
    1.0938662104e-02    1.0675827344e+05
    1.0958270170e-02    1.0669931250e+05
    1.0977892205e-02    1.0664136719e+05
    1.0997531936e-02    1.0658841406e+05
    1.1017187499e-02    1.0652996094e+05
    1.1036860757e-02    1.0647341406e+05
    1.1056551710e-02    1.0642061719e+05
    1.1076259427e-02    1.0636822656e+05
    1.1095987633e-02    1.0631550781e+05
    1.1115733534e-02    1.0626433594e+05
    1.1135498993e-02    1.0620828906e+05
    1.1155283079e-02    1.0615260156e+05
    1.1175086722e-02    1.0609743750e+05
    1.1194912717e-02    1.0603771094e+05
    1.1214758269e-02    1.0597338281e+05
    1.1234625243e-02    1.0590414844e+05
    1.1254511774e-02    1.0583833594e+05
    1.1274418794e-02    1.0577137500e+05
    1.1294347234e-02    1.0569355469e+05
    1.1314296164e-02    1.0561412500e+05
    1.1334266514e-02    1.0552290625e+05
    1.1354257353e-02    1.0543127344e+05
    1.1374268681e-02    1.0533266406e+05
    1.1394302361e-02    1.0522936719e+05
    1.1414355598e-02    1.0511835156e+05
    1.1434430256e-02    1.0500977344e+05
    1.1454525404e-02    1.0490182031e+05
    1.1474640109e-02    1.0480324219e+05
    1.1494777165e-02    1.0470841406e+05
    1.1514934711e-02    1.0462496875e+05
    1.1535113677e-02    1.0455035156e+05
    1.1555313133e-02    1.0448749219e+05
    1.1575534008e-02    1.0444808594e+05
    1.1595774442e-02    1.0441327344e+05
    1.1616035365e-02    1.0439767969e+05
    1.1636316776e-02    1.0439289844e+05
    1.1656619608e-02    1.0439908594e+05
    1.1676942930e-02    1.0441235156e+05
    1.1697287671e-02    1.0442574219e+05
    1.1717652902e-02    1.0443008594e+05
    1.1738038622e-02    1.0442707031e+05
    1.1758443899e-02    1.0441549219e+05
    1.1778870597e-02    1.0439803125e+05
    1.1799318716e-02    1.0436290625e+05
    1.1819788255e-02    1.0431367969e+05
    1.1840280145e-02    1.0425117969e+05
    1.1860790662e-02    1.0417664844e+05
    1.1881321669e-02    1.0410382031e+05
    1.1901874095e-02    1.0402093750e+05
    1.1922447011e-02    1.0394462500e+05
    1.1943042278e-02    1.0385962500e+05
    1.1963658035e-02    1.0378064844e+05
    1.1984295212e-02    1.0369271094e+05
    1.2004952878e-02    1.0359778125e+05
    1.2025631964e-02    1.0350457031e+05
    1.2046331540e-02    1.0339333594e+05
    1.2067052536e-02    1.0329003906e+05
    1.2087795883e-02    1.0318074219e+05
    1.2108558789e-02    1.0308232031e+05
    1.2129344046e-02    1.0298947656e+05
    1.2150149792e-02    1.0289782031e+05
    1.2170976959e-02    1.0281296094e+05
    1.2191825546e-02    1.0273631250e+05
    1.2212695554e-02    1.0267288281e+05
    1.2233586982e-02    1.0261196094e+05
    1.2254500762e-02    1.0256665625e+05
    1.2275436893e-02    1.0253347656e+05
    1.2296394445e-02    1.0250465625e+05
    1.2317374349e-02    1.0249422656e+05
    1.2338375673e-02    1.0249297656e+05
    1.2359398417e-02    1.0250459375e+05
    1.2380442582e-02    1.0252402344e+05
    1.2401508167e-02    1.0255558594e+05
    1.2422595173e-02    1.0259578906e+05
    1.2443703599e-02    1.0263707031e+05
    1.2464834377e-02    1.0268639844e+05
    1.2485986575e-02    1.0274268750e+05
    1.2507158332e-02    1.0280381250e+05
    1.2528351508e-02    1.0286191406e+05
    1.2549565174e-02    1.0292369531e+05
    1.2570801191e-02    1.0299769531e+05
    1.2592058629e-02    1.0307371094e+05
    1.2613337487e-02    1.0316141406e+05
    1.2634636834e-02    1.0327155469e+05
    1.2655957602e-02    1.0340816406e+05
    1.2677297927e-02    1.0358539844e+05
    1.2698660605e-02    1.0382891406e+05
    1.2720043771e-02    1.0414006250e+05
    1.2741449289e-02    1.0454538281e+05
    1.2762876227e-02    1.0507516406e+05
    1.2784325518e-02    1.0572753125e+05
    1.2805794366e-02    1.0651163281e+05
    1.2827285565e-02    1.0741035156e+05
    1.2848797254e-02    1.0840209375e+05
    1.2870330364e-02    1.0942633594e+05
    1.2891885825e-02    1.1041871094e+05
    1.2913462706e-02    1.1129828906e+05
    1.2935061008e-02    1.1199303125e+05
    1.2956679799e-02    1.1245027344e+05
    1.2978320010e-02    1.1264692969e+05
    1.2999981642e-02    1.1258542969e+05
    1.3021663763e-02    1.1227441406e+05
    1.3043368235e-02    1.1176439844e+05
    1.3065092266e-02    1.1110227344e+05
    1.3086837716e-02    1.1034289844e+05
    1.3108605519e-02    1.0955017969e+05
    1.3130392879e-02    1.0877953125e+05
    1.3152201660e-02    1.0808735156e+05
    1.3174032792e-02    1.0749625000e+05
    1.3195885345e-02    1.0702957031e+05
    1.3217759319e-02    1.0667511719e+05
    1.3239653781e-02    1.0640383594e+05
    1.3261569664e-02    1.0617974219e+05
    1.3283506967e-02    1.0595515625e+05
    1.3305463828e-02    1.0569487500e+05
    1.3327440247e-02    1.0538278125e+05
    1.3349435292e-02    1.0500096094e+05
    1.3371448033e-02    1.0456540625e+05
    1.3393475674e-02    1.0408386719e+05
    1.3415516354e-02    1.0358221094e+05
    1.3437564485e-02    1.0309775781e+05
    1.3459613547e-02    1.0264950781e+05
    1.3481658883e-02    1.0225372656e+05
    1.3503690250e-02    1.0192918750e+05
    1.3525702059e-02    1.0167343750e+05
    1.3547683135e-02    1.0148621875e+05
    1.3569628820e-02    1.0135696875e+05
    1.3591531664e-02    1.0128096875e+05
    1.3613392599e-02    1.0124181250e+05
    1.3635210693e-02    1.0123344531e+05
    1.3656994328e-02    1.0123758594e+05
    1.3678749092e-02    1.0124585156e+05
    1.3700488023e-02    1.0125382031e+05
    1.3722228818e-02    1.0125558594e+05
    1.3743981719e-02    1.0125018750e+05
    1.3765762560e-02    1.0123682031e+05
    1.3787578791e-02    1.0121883594e+05
    1.3809437864e-02    1.0120236719e+05
    1.3831341639e-02    1.0117536719e+05
    1.3853288256e-02    1.0113946094e+05
    1.3875273056e-02    1.0109774219e+05
    1.3897285797e-02    1.0104953125e+05
    1.3919321820e-02    1.0099843750e+05
    1.3941374607e-02    1.0094399219e+05
    1.3963440433e-02    1.0088817969e+05
    1.3985517435e-02    1.0083016406e+05
    1.4007603750e-02    1.0077627344e+05
    1.4029704034e-02    1.0073334375e+05
    1.4051820152e-02    1.0069764844e+05
    1.4073957689e-02    1.0068547656e+05
    1.4096121304e-02    1.0069939844e+05
    1.4118315652e-02    1.0073534375e+05
    1.4140545391e-02    1.0078716406e+05
    1.4162814245e-02    1.0086916406e+05
    1.4185124077e-02    1.0095146094e+05
    1.4207473956e-02    1.0103893750e+05
    1.4229862019e-02    1.0111393750e+05
    1.4252286404e-02    1.0117571094e+05
    1.4274741523e-02    1.0121560156e+05
    1.4297228307e-02    1.0123883594e+05
    1.4319745824e-02    1.0125259375e+05
    1.4342290349e-02    1.0125974219e+05
    1.4364863746e-02    1.0125981250e+05
    1.4387467876e-02    1.0126105469e+05
    1.4410103671e-02    1.0127702344e+05
    1.4432771131e-02    1.0130130469e+05
    1.4455472119e-02    1.0133117969e+05
    1.4478209428e-02    1.0136321094e+05
    1.4500979334e-02    1.0140157031e+05
    1.4523783699e-02    1.0143466406e+05
    1.4546621591e-02    1.0145937500e+05
    1.4569494873e-02    1.0148088281e+05
    1.4592399821e-02    1.0149333594e+05
    1.4615339227e-02    1.0150578906e+05
    1.4638305642e-02    1.0151614844e+05
    1.4661304653e-02    1.0152346094e+05
    1.4684336260e-02    1.0152918750e+05
    1.4707398601e-02    1.0153094531e+05
    1.4730494469e-02    1.0153272656e+05
    1.4753622934e-02    1.0153746094e+05
    1.4776783995e-02    1.0154302344e+05
    1.4799979515e-02    1.0155363281e+05
    1.4823205769e-02    1.0155946875e+05
    1.4846466482e-02    1.0156291406e+05
    1.4869757928e-02    1.0156133594e+05
    1.4893081971e-02    1.0155539844e+05
    1.4916437678e-02    1.0154625781e+05
    1.4939822257e-02    1.0153816406e+05
    1.4963239431e-02    1.0152611719e+05
    1.4986685477e-02    1.0151093750e+05
    1.5010161325e-02    1.0149433594e+05
    1.5033668838e-02    1.0146638281e+05
    1.5057205223e-02    1.0144553906e+05
    1.5080772340e-02    1.0142050000e+05
    1.5104367398e-02    1.0139071094e+05
    1.5127992257e-02    1.0135002344e+05
    1.5151646920e-02    1.0131466406e+05
    1.5175330453e-02    1.0127939844e+05
    1.5199041925e-02    1.0125016406e+05
    1.5222782269e-02    1.0121316406e+05
    1.5246548690e-02    1.0117910156e+05
    1.5270343982e-02    1.0114756250e+05
    1.5294168144e-02    1.0111625000e+05
    1.5318016522e-02    1.0109041406e+05
    1.5341891907e-02    1.0106228906e+05
    1.5365792438e-02    1.0104202344e+05
    1.5389721841e-02    1.0102122656e+05
    1.5413676389e-02    1.0099607031e+05
    1.5437657945e-02    1.0097075000e+05
    1.5461664647e-02    1.0094996875e+05
    1.5485695563e-02    1.0092578906e+05
    1.5509752557e-02    1.0090332031e+05
    1.5533835627e-02    1.0087908594e+05
    1.5557944775e-02    1.0085063281e+05
    1.5582079068e-02    1.0082316406e+05
    1.5606240369e-02    1.0080189844e+05
    1.5630424023e-02    1.0078166406e+05
    1.5654634684e-02    1.0075927344e+05
    1.5678871423e-02    1.0073527344e+05
    1.5703132376e-02    1.0071266406e+05
    1.5727419406e-02    1.0068725781e+05
    1.5751728788e-02    1.0065691406e+05
    1.5776060522e-02    1.0061689844e+05
    1.5800418332e-02    1.0058780469e+05
    1.5824800357e-02    1.0054668750e+05
    1.5849204734e-02    1.0050450000e+05
    1.5873633325e-02    1.0045936719e+05
    1.5898084268e-02    1.0040902344e+05
    1.5922557563e-02    1.0035972656e+05
    1.5947058797e-02    1.0030144531e+05
    1.5971582383e-02    1.0025083594e+05
    1.5996130183e-02    1.0020110156e+05
    1.6020702198e-02    1.0015502344e+05
    1.6045298427e-02    1.0011034375e+05
    1.6069920734e-02    1.0006682031e+05
    1.6094569117e-02    1.0001650781e+05
    1.6119243577e-02    9.9965914062e+04
    1.6143942252e-02    9.9910742188e+04
    1.6168667004e-02    9.9855398438e+04
    1.6193419695e-02    9.9805375000e+04
    1.6218200326e-02    9.9758492188e+04
    1.6243007034e-02    9.9711101562e+04
    1.6267839819e-02    9.9665148438e+04
    1.6292702407e-02    9.9622867188e+04
    1.6317596659e-02    9.9577773438e+04
    1.6342513263e-02    9.9542851562e+04
    1.6367461532e-02    9.9515031250e+04
    1.6392435879e-02    9.9495601562e+04
    1.6417443752e-02    9.9481726562e+04
    1.6442479566e-02    9.9475351562e+04
    1.6467543319e-02    9.9482039062e+04
    1.6492636874e-02    9.9492148438e+04
    1.6517756507e-02    9.9516531250e+04
    1.6542907804e-02    9.9549195312e+04
    1.6568088904e-02    9.9583437500e+04
    1.6593271866e-02    9.9623523438e+04
    1.6618426889e-02    9.9667289062e+04
    1.6643559560e-02    9.9713664062e+04
    1.6668669879e-02    9.9765007812e+04
    1.6693757847e-02    9.9814179688e+04
    1.6718825325e-02    9.9859960938e+04
    1.6743874177e-02    9.9908023438e+04
    1.6768900678e-02    9.9953125000e+04
    1.6793908551e-02    9.9998695312e+04
    1.6818899661e-02    1.0003631250e+05
    1.6843874007e-02    1.0007863281e+05
    1.6868829727e-02    1.0011390625e+05
    1.6893770546e-02    1.0014864844e+05
    1.6918692738e-02    1.0018333594e+05
    1.6943598166e-02    1.0021788281e+05
    1.6968490556e-02    1.0024322656e+05
    1.6993366182e-02    1.0025994531e+05
    1.7018226907e-02    1.0028058594e+05
    1.7043072730e-02    1.0030103906e+05
    1.7067901790e-02    1.0032325781e+05
    1.7092714086e-02    1.0034697656e+05
    1.7117511481e-02    1.0037296094e+05
    1.7142292112e-02    1.0039971094e+05
    1.7167057842e-02    1.0041940625e+05
    1.7191808671e-02    1.0044883594e+05
    1.7216544598e-02    1.0048667969e+05
    1.7241263762e-02    1.0052527344e+05
    1.7265968025e-02    1.0056983594e+05
    1.7290659249e-02    1.0062383594e+05
    1.7315333709e-02    1.0068133594e+05
    1.7339993268e-02    1.0074543750e+05
    1.7364639789e-02    1.0080977344e+05
    1.7389267683e-02    1.0087596094e+05
    1.7413880676e-02    1.0094452344e+05
    1.7438478768e-02    1.0100861719e+05
    1.7463061959e-02    1.0107316406e+05
    1.7487626523e-02    1.0113403906e+05
    1.7512176186e-02    1.0119305469e+05
    1.7536709085e-02    1.0124486719e+05
    1.7561223358e-02    1.0128971875e+05
    1.7585720867e-02    1.0133103125e+05
    1.7610201612e-02    1.0136827344e+05
    1.7634663731e-02    1.0139941406e+05
    1.7659107223e-02    1.0143215625e+05
    1.7683532089e-02    1.0145628906e+05
    1.7707940191e-02    1.0147947656e+05
    1.7732329667e-02    1.0150132031e+05
    1.7756698653e-02    1.0151514844e+05
    1.7781050876e-02    1.0153342969e+05
    1.7805384472e-02    1.0155059375e+05
    1.7829699442e-02    1.0156855469e+05
    1.7853999510e-02    1.0157983594e+05
    1.7878280953e-02    1.0159246094e+05
    1.7902545631e-02    1.0161090625e+05
    1.7926793545e-02    1.0163599219e+05
    1.7951028422e-02    1.0165250781e+05
    1.7975246534e-02    1.0166935156e+05
    1.7999447882e-02    1.0169514844e+05
    1.8023636192e-02    1.0171081250e+05
    1.8047811463e-02    1.0172597656e+05
    1.8071975559e-02    1.0173891406e+05
    1.8096126616e-02    1.0175438281e+05
    1.8120266497e-02    1.0176910156e+05
    1.8144397065e-02    1.0178910156e+05
    1.8168520182e-02    1.0180139844e+05
    1.8192630261e-02    1.0181905469e+05
    1.8216732889e-02    1.0182668750e+05
    1.8240824342e-02    1.0183535156e+05
    1.8264908344e-02    1.0185802344e+05
    1.8288983032e-02    1.0188057031e+05
    1.8313048407e-02    1.0190060156e+05
    1.8337102607e-02    1.0192852344e+05
    1.8361147493e-02    1.0195511719e+05
    1.8385183066e-02    1.0198634375e+05
    1.8409207463e-02    1.0202984375e+05
    1.8433224410e-02    1.0207308594e+05
    1.8457230181e-02    1.0212916406e+05
    1.8481226638e-02    1.0219546094e+05
    1.8505210057e-02    1.0226062500e+05
    1.8529184163e-02    1.0233775781e+05
    1.8553148955e-02    1.0242455469e+05
    1.8577100709e-02    1.0252522656e+05
    1.8601041287e-02    1.0263668750e+05
    1.8624972552e-02    1.0275550781e+05
    1.8648892641e-02    1.0287434375e+05
    1.8672801554e-02    1.0299922656e+05
    1.8696699291e-02    1.0312410156e+05
    1.8720587716e-02    1.0323860156e+05
    1.8744463101e-02    1.0333727344e+05
    1.8768329173e-02    1.0341015625e+05
    1.8792184070e-02    1.0347114844e+05
    1.8816027790e-02    1.0349899219e+05
    1.8839860335e-02    1.0350087500e+05
    1.8863683566e-02    1.0345964844e+05
    1.8887493759e-02    1.0338585156e+05
    1.8911294639e-02    1.0327866406e+05
    1.8935086206e-02    1.0313553125e+05
    1.8958866596e-02    1.0295962500e+05
    1.8982635811e-02    1.0275453906e+05
    1.9006397575e-02    1.0251903125e+05
    1.9030146301e-02    1.0227482031e+05
    1.9053885713e-02    1.0202007031e+05
    1.9077615812e-02    1.0177791406e+05
    1.9101334736e-02    1.0154641406e+05
    1.9125042483e-02    1.0133560156e+05
    1.9148740917e-02    1.0115349219e+05
    1.9172428176e-02    1.0100800781e+05
    1.9196104258e-02    1.0089350781e+05
    1.9219771028e-02    1.0081143750e+05
    1.9243424758e-02    1.0075946094e+05
    1.9267069176e-02    1.0073491406e+05
    1.9290700555e-02    1.0073277344e+05
    1.9314322621e-02    1.0074421875e+05
    1.9337931648e-02    1.0076380469e+05
    1.9361529499e-02    1.0079521094e+05
    1.9385114312e-02    1.0082746094e+05
    1.9408687949e-02    1.0086980469e+05
    1.9432250410e-02    1.0092087500e+05
    1.9455801696e-02    1.0096710156e+05
    1.9479339942e-02    1.0101610156e+05
    1.9502865151e-02    1.0105991406e+05
    1.9526379183e-02    1.0111063281e+05
    1.9549878314e-02    1.0115753125e+05
    1.9573366269e-02    1.0120914844e+05
    1.9596841186e-02    1.0126040625e+05
    1.9620303065e-02    1.0130858594e+05
    1.9643751904e-02    1.0135721094e+05
    1.9667187706e-02    1.0140232031e+05
    1.9690606743e-02    1.0144239844e+05
    1.9714014605e-02    1.0148340625e+05
    1.9737409428e-02    1.0153352344e+05
    1.9760791212e-02    1.0158115625e+05
    1.9784159958e-02    1.0162911719e+05
    1.9807513803e-02    1.0168096094e+05
    1.9830854610e-02    1.0173399219e+05
    1.9854182377e-02    1.0179258594e+05
    1.9877497107e-02    1.0185762500e+05
    1.9900798798e-02    1.0192353906e+05
    1.9924087450e-02    1.0198130469e+05
    1.9947361201e-02    1.0204141406e+05
    1.9970623776e-02    1.0209735156e+05
    1.9993871450e-02    1.0214535156e+05
    2.0017107949e-02    1.0219358594e+05
    2.0040329546e-02    1.0223363281e+05
    2.0063538104e-02    1.0226750000e+05
    2.0086731762e-02    1.0229421094e+05
    2.0109914243e-02    1.0232396875e+05
    2.0133081824e-02    1.0234775000e+05
    2.0156236365e-02    1.0236580469e+05
    2.0179376006e-02    1.0237897656e+05
    2.0202504471e-02    1.0239006250e+05
    2.0225618035e-02    1.0239558594e+05
    2.0248720422e-02    1.0240033594e+05
    2.0271807909e-02    1.0240261719e+05
    2.0294882357e-02    1.0240146094e+05
    2.0317947492e-02    1.0238681250e+05
    2.0340997726e-02    1.0236919531e+05
    2.0364036784e-02    1.0234791406e+05
    2.0387060940e-02    1.0232617969e+05
    2.0410073921e-02    1.0229611719e+05
    2.0433073863e-02    1.0226827344e+05
    2.0456060767e-02    1.0223472656e+05
    2.0479036495e-02    1.0219566406e+05
    2.0501999184e-02    1.0216352344e+05
    2.0524948835e-02    1.0212539844e+05
    2.0547885448e-02    1.0209814844e+05
    2.0570809022e-02    1.0206052344e+05
    2.0593719557e-02    1.0203153906e+05
    2.0616617054e-02    1.0200196094e+05
    2.0639499649e-02    1.0196693750e+05
    2.0662369207e-02    1.0194171094e+05
    2.0685223863e-02    1.0191802344e+05
    2.0708063617e-02    1.0190236719e+05
    2.0730890334e-02    1.0189052344e+05
    2.0753700286e-02    1.0188125781e+05
    2.0776495337e-02    1.0188185156e+05
    2.0799275488e-02    1.0188533594e+05
    2.0822042599e-02    1.0189289844e+05
    2.0844791085e-02    1.0190878906e+05
    2.0867524669e-02    1.0192239844e+05
    2.0890241489e-02    1.0194430469e+05
    2.0912945271e-02    1.0196890625e+05
    2.0935632288e-02    1.0198764844e+05
    2.0958306268e-02    1.0200977344e+05
    2.0980965346e-02    1.0203616406e+05
    2.1003607661e-02    1.0206080469e+05
    2.1026238799e-02    1.0207769531e+05
    2.1048855036e-02    1.0210153125e+05
    2.1071458235e-02    1.0212005469e+05
    2.1094048396e-02    1.0213364844e+05
    2.1116625518e-02    1.0214607031e+05
    2.1139191464e-02    1.0215746094e+05
    2.1161744371e-02    1.0216258594e+05
    2.1184286103e-02    1.0216564844e+05
    2.1206818521e-02    1.0216744531e+05
    2.1229337901e-02    1.0217132031e+05
    2.1251846105e-02    1.0217146094e+05
    2.1274344996e-02    1.0216650000e+05
    2.1296832711e-02    1.0215828906e+05
    2.1319312975e-02    1.0215094531e+05
    2.1341778338e-02    1.0214457031e+05
    2.1364232525e-02    1.0213742969e+05
    2.1386675537e-02    1.0212925000e+05
    2.1409107372e-02    1.0212489844e+05
    2.1431528032e-02    1.0211458594e+05
    2.1453931928e-02    1.0209775781e+05
    2.1476324648e-02    1.0208605469e+05
    2.1498700604e-02    1.0207047656e+05
    2.1521063522e-02    1.0205852344e+05
    2.1543409675e-02    1.0203747656e+05
    2.1565740928e-02    1.0201652344e+05
    2.1588053554e-02    1.0200009375e+05
    2.1610351279e-02    1.0197946094e+05
    2.1632634103e-02    1.0195902344e+05
    2.1654898301e-02    1.0194128906e+05
    2.1677147597e-02    1.0192481250e+05
    2.1699378267e-02    1.0190344531e+05
    2.1721594036e-02    1.0188460156e+05
    2.1743793041e-02    1.0186671094e+05
    2.1765975282e-02    1.0185259375e+05
    2.1788140759e-02    1.0183372656e+05
    2.1810289472e-02    1.0181752344e+05
    2.1832419559e-02    1.0180815625e+05
    2.1854531020e-02    1.0179338281e+05
    2.1876627579e-02    1.0178600000e+05
    2.1898705512e-02    1.0177627344e+05
    2.1920768544e-02    1.0177128906e+05
    2.1942811087e-02    1.0176102344e+05
    2.1964838728e-02    1.0175183594e+05
    2.1986849606e-02    1.0174791406e+05
    2.2008845583e-02    1.0174866406e+05
    2.2030822933e-02    1.0175122656e+05
    2.2052785382e-02    1.0175609375e+05
    2.2074732929e-02    1.0175712500e+05
    2.2096665576e-02    1.0175346094e+05
    2.2118583322e-02    1.0175050000e+05
    2.2140489891e-02    1.0174716406e+05
    2.2162377834e-02    1.0174430469e+05
    2.2184254602e-02    1.0174606250e+05
    2.2206118330e-02    1.0174827344e+05
    2.2227969021e-02    1.0174631250e+05
    2.2249806672e-02    1.0174440625e+05
    2.2271629423e-02    1.0174114844e+05
    2.2293440998e-02    1.0173758594e+05
    2.2315241396e-02    1.0172516406e+05
    2.2337028757e-02    1.0172203906e+05
    2.2358803079e-02    1.0172671094e+05
    2.2380566224e-02    1.0172235156e+05
    2.2402318195e-02    1.0171799219e+05
    2.2424057126e-02    1.0171283594e+05
    2.2445784882e-02    1.0170635156e+05
    2.2467501462e-02    1.0169981250e+05
    2.2489206865e-02    1.0170102344e+05
    2.2510899231e-02    1.0169778906e+05
    2.2532582283e-02    1.0169343750e+05
    2.2554252297e-02    1.0168852344e+05
    2.2575911134e-02    1.0169105469e+05
    2.2597560659e-02    1.0168866406e+05
    2.2619199008e-02    1.0168262500e+05
    2.2640828043e-02    1.0167741406e+05
    2.2662445903e-02    1.0167449219e+05
    2.2684050724e-02    1.0167027344e+05
    2.2705646232e-02    1.0166424219e+05
    2.2727232426e-02    1.0165941406e+05
    2.2748809308e-02    1.0165394531e+05
    2.2770375013e-02    1.0164937500e+05
    2.2791929543e-02    1.0164336719e+05
    2.2813472897e-02    1.0163300781e+05
    2.2835006937e-02    1.0162271094e+05
    2.2856531665e-02    1.0161608594e+05
    2.2878047079e-02    1.0161386719e+05
    2.2899549454e-02    1.0160791406e+05
    2.2921044379e-02    1.0159735156e+05
    2.2942528129e-02    1.0159410156e+05
    2.2964000702e-02    1.0158796094e+05
    2.2985465825e-02    1.0158185156e+05
    2.3006917909e-02    1.0157675000e+05
    2.3028360680e-02    1.0157859375e+05
    2.3049792275e-02    1.0157652344e+05
    2.3071214557e-02    1.0157957031e+05
    2.3092625663e-02    1.0158312500e+05
    2.3114029318e-02    1.0158500781e+05
    2.3135419935e-02    1.0158746094e+05
    2.3156799376e-02    1.0159986719e+05
    2.3178169504e-02    1.0160456250e+05
    2.3199530318e-02    1.0160943750e+05
    2.3220879957e-02    1.0162347656e+05
    2.3242218420e-02    1.0162553125e+05
    2.3263547570e-02    1.0163115625e+05
    2.3284865543e-02    1.0163853906e+05
    2.3306174204e-02    1.0164982031e+05
    2.3327469826e-02    1.0165652344e+05
    2.3348756135e-02    1.0166193750e+05
    2.3370031267e-02    1.0167241406e+05
    2.3391297087e-02    1.0167781250e+05
    2.3412553594e-02    1.0167959375e+05
    2.3433798924e-02    1.0168091406e+05
    2.3455033079e-02    1.0168050781e+05
    2.3476256058e-02    1.0167939844e+05
    2.3497469723e-02    1.0168208594e+05
    2.3518672213e-02    1.0168346875e+05
    2.3539865389e-02    1.0167210156e+05
    2.3561049253e-02    1.0166892969e+05
    2.3582221940e-02    1.0165952344e+05
    2.3603385314e-02    1.0164765625e+05
    2.3624535650e-02    1.0163728125e+05
    2.3645676672e-02    1.0162552344e+05
    2.3666808382e-02    1.0161075000e+05
    2.3687927052e-02    1.0159067969e+05
    2.3709038273e-02    1.0156977344e+05
    2.3730138317e-02    1.0155733594e+05
    2.3751227185e-02    1.0153466406e+05
    2.3772306740e-02    1.0152093750e+05
    2.3793375120e-02    1.0150828125e+05
    2.3814432323e-02    1.0149107031e+05
    2.3835480213e-02    1.0147090625e+05
    2.3856516927e-02    1.0145707031e+05
    2.3877544329e-02    1.0144502344e+05
    2.3898560554e-02    1.0143884375e+05
    2.3919565603e-02    1.0143905469e+05
    2.3940561339e-02    1.0144389844e+05
    2.3961545900e-02    1.0145205469e+05
    2.3982519284e-02    1.0145453125e+05
    2.4003483355e-02    1.0146266406e+05
    2.4024436250e-02    1.0146400781e+05
    2.4045377970e-02    1.0146652344e+05
    2.4066310376e-02    1.0147585156e+05
    2.4087233469e-02    1.0148458594e+05
    2.4108145386e-02    1.0149665625e+05
    2.4129044265e-02    1.0149921875e+05
    2.4149935693e-02    1.0150516406e+05
    2.4170814082e-02    1.0151507031e+05
    2.4191683158e-02    1.0151727344e+05
    2.4212542921e-02    1.0151706250e+05
    2.4233391508e-02    1.0151502344e+05
    2.4254228920e-02    1.0151578906e+05
    2.4275057018e-02    1.0152483594e+05
    2.4295873940e-02    1.0152518750e+05
    2.4316681549e-02    1.0153560156e+05
    2.4337477982e-02    1.0153641406e+05
    2.4358265102e-02    1.0153949219e+05
    2.4379042909e-02    1.0154655469e+05
    2.4399809539e-02    1.0155203906e+05
    2.4420566857e-02    1.0155752344e+05
    2.4441312999e-02    1.0157028906e+05
    2.4462047964e-02    1.0157392969e+05
    2.4482775480e-02    1.0158796094e+05
    2.4503491819e-02    1.0159856250e+05
    2.4524198845e-02    1.0161569531e+05
    2.4544894695e-02    1.0162610156e+05
    2.4565581232e-02    1.0164141406e+05
    2.4586258456e-02    1.0165092969e+05
    2.4606924504e-02    1.0166538281e+05
    2.4627581239e-02    1.0168102344e+05
    2.4648228660e-02    1.0169182031e+05
    2.4668866768e-02    1.0170212500e+05
    2.4689495564e-02    1.0171108594e+05
    2.4710113183e-02    1.0171184375e+05
    2.4730721489e-02    1.0171090625e+05
    2.4751318619e-02    1.0170469531e+05
    2.4771906435e-02    1.0169550781e+05
    2.4792486802e-02    1.0168017969e+05
    2.4813055992e-02    1.0166764844e+05
    2.4833614007e-02    1.0164846094e+05
    2.4854162708e-02    1.0162212500e+05
    2.4874702096e-02    1.0158799219e+05
    2.4895232171e-02    1.0156010156e+05
    2.4915752932e-02    1.0151855469e+05
    2.4936262518e-02    1.0148082031e+05
    2.4956764653e-02    1.0144490625e+05
    2.4977253750e-02    1.0141180469e+05
    2.4997735396e-02    1.0138227344e+05
    2.5018205866e-02    1.0135797656e+05
    2.5038668886e-02    1.0133771094e+05
    2.5059120730e-02    1.0131902344e+05
    2.5079563260e-02    1.0131533594e+05
    2.5099996477e-02    1.0131559375e+05
    2.5120420381e-02    1.0132183594e+05
    2.5140833110e-02    1.0134061719e+05
    2.5161236525e-02    1.0136042969e+05
    2.5181630626e-02    1.0138424219e+05
    2.5202017277e-02    1.0142122656e+05
    2.5222390890e-02    1.0145181250e+05
    2.5242757052e-02    1.0148472656e+05
    2.5263112038e-02    1.0151171094e+05
    2.5283459574e-02    1.0154902344e+05
    2.5303795934e-02    1.0158053906e+05
    2.5324124843e-02    1.0160564844e+05
    2.5344440714e-02    1.0163241406e+05
    2.5364749134e-02    1.0165647656e+05
    2.5385048240e-02    1.0167690625e+05
    2.5405339897e-02    1.0169578906e+05
    2.5425618514e-02    1.0171422656e+05
    2.5445887819e-02    1.0173041406e+05
    2.5466147810e-02    1.0174555469e+05
    2.5486400351e-02    1.0176202344e+05
    2.5506639853e-02    1.0176947656e+05
    2.5526873767e-02    1.0178441406e+05
    2.5547094643e-02    1.0180033594e+05
    2.5567308068e-02    1.0181553906e+05
    2.5587510318e-02    1.0183266406e+05
    2.5607703254e-02    1.0184927344e+05
    2.5627886876e-02    1.0186516406e+05
    2.5648061186e-02    1.0187483594e+05
    2.5668226182e-02    1.0188549219e+05
    2.5688380003e-02    1.0190035156e+05
    2.5708526373e-02    1.0191035156e+05
    2.5728661567e-02    1.0192494531e+05
    2.5748789310e-02    1.0193947656e+05
    2.5768904015e-02    1.0194903906e+05
    2.5789011270e-02    1.0195784375e+05
    2.5809109211e-02    1.0196202344e+05
    2.5829195976e-02    1.0196458594e+05
    2.5849273428e-02    1.0196563281e+05
    2.5869343430e-02    1.0197092969e+05
    2.5889402255e-02    1.0196821094e+05
    2.5909451768e-02    1.0196618750e+05
    2.5929493830e-02    1.0196200000e+05
    2.5949522853e-02    1.0195675000e+05
    2.5969544426e-02    1.0195085156e+05
    2.5989556685e-02    1.0194735156e+05
    2.6009559631e-02    1.0194021094e+05
    2.6029553264e-02    1.0193922656e+05
    2.6049537584e-02    1.0193066406e+05
    2.6069512591e-02    1.0192571094e+05
    2.6089478284e-02    1.0192071094e+05
    2.6109432802e-02    1.0191809375e+05
    2.6129379869e-02    1.0190791406e+05
    2.6149315760e-02    1.0190524219e+05
    2.6169244200e-02    1.0189239844e+05
    2.6189163327e-02    1.0188952344e+05
    2.6209073141e-02    1.0188652344e+05
    2.6228975505e-02    1.0188339844e+05
    2.6248866692e-02    1.0187087500e+05
    2.6268748567e-02    1.0186736719e+05
    2.6288621128e-02    1.0186314844e+05
    2.6308484375e-02    1.0185856250e+05
    2.6328338310e-02    1.0185366406e+05
    2.6348184794e-02    1.0184860156e+05
    2.6368021965e-02    1.0184466406e+05
    2.6387847960e-02    1.0183364844e+05
    2.6407664642e-02    1.0182767969e+05
    2.6427472010e-02    1.0182290625e+05
    2.6447271928e-02    1.0181893750e+05
    2.6467062533e-02    1.0182340625e+05
    2.6486843824e-02    1.0182010156e+05
    2.6506617665e-02    1.0181562500e+05
    2.6526380330e-02    1.0181146875e+05
    2.6546133682e-02    1.0180416406e+05
    2.6565877721e-02    1.0179322656e+05
    2.6585612446e-02    1.0179560156e+05
    2.6605339721e-02    1.0179353125e+05
    2.6625057682e-02    1.0178827344e+05
    2.6644766331e-02    1.0178502344e+05
    2.6664465666e-02    1.0179006250e+05
    2.6684155688e-02    1.0178724219e+05
    2.6703836396e-02    1.0177996094e+05
    2.6723509654e-02    1.0177716406e+05
    2.6743173599e-02    1.0177835156e+05
    2.6762828231e-02    1.0177471875e+05
    2.6782475412e-02    1.0177390625e+05
    2.6802113280e-02    1.0177847656e+05
    2.6821739972e-02    1.0177593750e+05
    2.6841359213e-02    1.0177361719e+05
    2.6860967278e-02    1.0177257031e+05
    2.6880569756e-02    1.0177153906e+05
    2.6900164783e-02    1.0177063281e+05
    2.6919748634e-02    1.0177847656e+05
    2.6939325035e-02    1.0177753125e+05
    2.6958892122e-02    1.0177678906e+05
    2.6978449896e-02    1.0177635156e+05
    2.6997998357e-02    1.0178100000e+05
    2.7017539367e-02    1.0178611719e+05
    2.7037071064e-02    1.0178578906e+05
    2.7056595311e-02    1.0178547656e+05
    2.7076110244e-02    1.0178637500e+05
    2.7095617726e-02    1.0178624219e+05
    2.7115115896e-02    1.0178737500e+05
    2.7134604752e-02    1.0179280469e+05
    2.7154086158e-02    1.0179956250e+05
    2.7173558250e-02    1.0180077344e+05
    2.7193021029e-02    1.0180305469e+05
    2.7212476358e-02    1.0180319531e+05
    2.7231922373e-02    1.0180578906e+05
    2.7251357213e-02    1.0180862500e+05
    2.7270786464e-02    1.0181596094e+05
    2.7290204540e-02    1.0182366406e+05
    2.7309613302e-02    1.0182669531e+05
    2.7329014614e-02    1.0182989844e+05
    2.7348404750e-02    1.0183433594e+05
    2.7367785573e-02    1.0184296875e+05
    2.7387158945e-02    1.0184396875e+05
    2.7406521142e-02    1.0185118750e+05
    2.7425874025e-02    1.0185750000e+05
    2.7445219457e-02    1.0186039844e+05
    2.7464553714e-02    1.0186200781e+05
    2.7483878657e-02    1.0186246094e+05
    2.7503194287e-02    1.0186953906e+05
    2.7522502467e-02    1.0187353125e+05
    2.7541799471e-02    1.0187585156e+05
    2.7561087161e-02    1.0187869531e+05
    2.7580365539e-02    1.0188205469e+05
    2.7599634603e-02    1.0188714844e+05
    2.7618894354e-02    1.0189050000e+05
    2.7638144791e-02    1.0189380469e+05
    2.7657385916e-02    1.0189586719e+05
    2.7676619589e-02    1.0189789844e+05
    2.7695843950e-02    1.0189677344e+05
    2.7715058997e-02    1.0190341406e+05
    2.7734262869e-02    1.0190703906e+05
    2.7753459290e-02    1.0190884375e+05
    2.7772648260e-02    1.0191041406e+05
    2.7791827917e-02    1.0190709375e+05
    2.7810998261e-02    1.0190993750e+05
    2.7830159292e-02    1.0190635156e+05
    2.7849311009e-02    1.0190832031e+05
    2.7868455276e-02    1.0191089844e+05
    2.7887590230e-02    1.0191296094e+05
    2.7906717733e-02    1.0191621094e+05
    2.7925835922e-02    1.0191837500e+05
    2.7944946662e-02    1.0192050781e+05
    2.7964048088e-02    1.0192253906e+05
    2.7983140200e-02    1.0192335156e+05
    2.8002224863e-02    1.0192582031e+05
    2.8021300212e-02    1.0192700781e+05
    2.8040368110e-02    1.0192458594e+05
    2.8059426695e-02    1.0192153906e+05
    2.8078475967e-02    1.0193171094e+05
    2.8097519651e-02    1.0193321094e+05
    2.8116554022e-02    1.0193100000e+05
    2.8135580942e-02    1.0192564844e+05
    2.8154598549e-02    1.0192721094e+05
    2.8173606843e-02    1.0193178906e+05
    2.8192607686e-02    1.0193486719e+05
    2.8211599216e-02    1.0193443750e+05
    2.8230583295e-02    1.0193456250e+05
    2.8249559924e-02    1.0193567969e+05
    2.8268527240e-02    1.0193541406e+05
    2.8287487105e-02    1.0193157031e+05
    2.8306435794e-02    1.0192716406e+05
    2.8325378895e-02    1.0192712500e+05
    2.8344312683e-02    1.0192627344e+05
    2.8363237157e-02    1.0192575781e+05
    2.8382156044e-02    1.0192067969e+05
    2.8401065618e-02    1.0191581250e+05
    2.8419965878e-02    1.0191752344e+05
    2.8438858688e-02    1.0192391406e+05
    2.8457742184e-02    1.0192358594e+05
    2.8476616368e-02    1.0192485156e+05
    2.8495483100e-02    1.0191438281e+05
    2.8514338657e-02    1.0191341406e+05
    2.8533160686e-02    1.0191172656e+05
    2.8551930562e-02    1.0190992969e+05
    2.8570635244e-02    1.0190858594e+05
    2.8589271009e-02    1.0190666406e+05
    2.8607837856e-02    1.0190478906e+05
    2.8626350686e-02    1.0190261719e+05
    2.8644818813e-02    1.0190278906e+05
    2.8663259000e-02    1.0190060156e+05
    2.8681686148e-02    1.0189950000e+05
    2.8700113297e-02    1.0189857031e+05
    2.8718546033e-02    1.0189730469e+05
    2.8736986220e-02    1.0189650781e+05
    2.8755431995e-02    1.0189996094e+05
    2.8773877770e-02    1.0190322656e+05
    2.8792314231e-02    1.0189272656e+05
    2.8810730204e-02    1.0189163281e+05
    2.8829116374e-02    1.0188974219e+05
    2.8847465292e-02    1.0188800000e+05
    2.8865773231e-02    1.0189617969e+05
    2.8884036466e-02    1.0189484375e+05
    2.8902258724e-02    1.0189471094e+05
    2.8920443729e-02    1.0189453906e+05
    2.8938598931e-02    1.0188903125e+05
    2.8956729919e-02    1.0188830469e+05
    2.8974846005e-02    1.0189363281e+05
    2.8992949054e-02    1.0189403125e+05
    2.9011042789e-02    1.0189414844e+05
    2.9029129073e-02    1.0190146094e+05
    2.9047204182e-02    1.0190581250e+05
    2.9065268114e-02    1.0190863281e+05
    2.9083315283e-02    1.0191046875e+05
    2.9101338238e-02    1.0191306250e+05
    2.9119335115e-02    1.0191514844e+05
    2.9137304053e-02    1.0191802344e+05
    2.9155241325e-02    1.0192281250e+05
    2.9173148796e-02    1.0193263281e+05
    2.9191024601e-02    1.0193640625e+05
    2.9208874330e-02    1.0193975781e+05
    2.9226697981e-02    1.0194249219e+05
    2.9244501144e-02    1.0194572656e+05
    2.9262285680e-02    1.0194893750e+05
    2.9280053452e-02    1.0195093750e+05
    2.9297806323e-02    1.0195432031e+05
    2.9315544292e-02    1.0195734375e+05
    2.9333265498e-02    1.0196077344e+05
    2.9350971803e-02    1.0196433594e+05
    2.9368655756e-02    1.0197016406e+05
    2.9386319220e-02    1.0197555469e+05
    2.9403960332e-02    1.0197608594e+05
    2.9421577230e-02    1.0197590625e+05
    2.9439168051e-02    1.0197972656e+05
    2.9456734657e-02    1.0198233594e+05
    2.9474277049e-02    1.0198491406e+05
    2.9491795227e-02    1.0198792969e+05
    2.9509292915e-02    1.0199074219e+05
    2.9526771978e-02    1.0199391406e+05
    2.9544232413e-02    1.0199068750e+05
    2.9561674222e-02    1.0199346094e+05
    2.9579099268e-02    1.0199021094e+05
    2.9596509412e-02    1.0199099219e+05
    2.9613900930e-02    1.0199405469e+05
    2.9631273821e-02    1.0199832031e+05
    2.9648626223e-02    1.0199710156e+05
    2.9665958136e-02    1.0200396094e+05
    2.9683271423e-02    1.0200603906e+05
    2.9700560495e-02    1.0200334375e+05
    2.9717829078e-02    1.0200533594e+05
    2.9735075310e-02    1.0200781250e+05
    2.9752301052e-02    1.0200914844e+05
    2.9769508168e-02    1.0201158594e+05
    2.9786696658e-02    1.0201288281e+05
    2.9803866521e-02    1.0201467969e+05
    2.9821017757e-02    1.0201643750e+05
    2.9838152230e-02    1.0201810156e+05
    2.9855269939e-02    1.0202027344e+05
    2.9872370884e-02    1.0202109375e+05
    2.9889453202e-02    1.0202232031e+05
    2.9906518757e-02    1.0201889844e+05
    2.9923565686e-02    1.0201507031e+05
    2.9940593988e-02    1.0201594531e+05
    2.9957601801e-02    1.0201636719e+05
    2.9974590987e-02    1.0202485156e+05
    2.9991561547e-02    1.0202718750e+05
    3.0008511618e-02    1.0202831250e+05
    3.0025444925e-02    1.0202484375e+05
    3.0042361468e-02    1.0202096875e+05
    3.0059259385e-02    1.0202162500e+05
    3.0076142401e-02    1.0202206250e+05
    3.0093006790e-02    1.0202261719e+05
    3.0109854415e-02    1.0202271875e+05
    3.0126683414e-02    1.0202394531e+05
    3.0143497512e-02    1.0202353906e+05
    3.0160292983e-02    1.0202772656e+05
    3.0177071691e-02    1.0203453906e+05
    3.0193833634e-02    1.0202747656e+05
    3.0210576952e-02    1.0202843750e+05
    3.0227303505e-02    1.0203000000e+05
    3.0244011432e-02    1.0203049219e+05
    3.0260702595e-02    1.0203671875e+05
    3.0277376994e-02    1.0204011719e+05
    3.0294034630e-02    1.0203358594e+05
    3.0310675502e-02    1.0203505469e+05
    3.0327299610e-02    1.0203596094e+05
    3.0343905091e-02    1.0203633594e+05
    3.0360495672e-02    1.0204085156e+05
    3.0377071351e-02    1.0204406250e+05
    3.0393628404e-02    1.0204753906e+05
    3.0410168692e-02    1.0204539844e+05
    3.0426690355e-02    1.0204415625e+05
    3.0443195254e-02    1.0204539844e+05
    3.0459685251e-02    1.0205235156e+05
    3.0476156622e-02    1.0205602344e+05
    3.0492611229e-02    1.0204805469e+05
    3.0509050936e-02    1.0204858594e+05
    3.0525473878e-02    1.0204891406e+05
    3.0541881919e-02    1.0205025781e+05
    3.0558273196e-02    1.0205134375e+05
    3.0574647710e-02    1.0204919531e+05
    3.0591005459e-02    1.0204282031e+05
    3.0607348308e-02    1.0204234375e+05
    3.0623674393e-02    1.0204114844e+05
    3.0639985576e-02    1.0202996094e+05
    3.0656279996e-02    1.0202947656e+05
    3.0672557652e-02    1.0202782031e+05
    3.0688818544e-02    1.0202786719e+05
    3.0705062672e-02    1.0202669531e+05
    3.0721291900e-02    1.0202527344e+05
    3.0737506226e-02    1.0201485156e+05
    3.0753703788e-02    1.0201321094e+05
    3.0769886449e-02    1.0201067969e+05
    3.0786054209e-02    1.0199752344e+05
    3.0802207068e-02    1.0199433594e+05
    3.0818343163e-02    1.0199046094e+05
    3.0834466219e-02    1.0198727344e+05
    3.0850572512e-02    1.0198394531e+05
    3.0866663903e-02    1.0198002344e+05
    3.0882738531e-02    1.0197075000e+05
    3.0898798257e-02    1.0196966406e+05
    3.0914843082e-02    1.0197128906e+05
    3.0930871144e-02    1.0196742969e+05
    3.0946886167e-02    1.0196450781e+05
    3.0962884426e-02    1.0196615625e+05
    3.0978867784e-02    1.0197402344e+05
    3.0994836241e-02    1.0197716406e+05
    3.1010789797e-02    1.0198225781e+05
    3.1026728451e-02    1.0198647656e+05
    3.1042650342e-02    1.0198612500e+05
    3.1058559194e-02    1.0199600781e+05
    3.1074455008e-02    1.0199777344e+05
    3.1090334058e-02    1.0200739844e+05
    3.1106200069e-02    1.0200947656e+05
    3.1122051179e-02    1.0201427344e+05
    3.1137887388e-02    1.0202275000e+05
    3.1153710559e-02    1.0202652344e+05
    3.1169516966e-02    1.0203525000e+05
    3.1185310334e-02    1.0204340625e+05
    3.1201090664e-02    1.0204727344e+05
    3.1216854230e-02    1.0205122656e+05
    3.1232602894e-02    1.0205409375e+05
    3.1248336658e-02    1.0205815625e+05
    3.1264055520e-02    1.0206344531e+05
    3.1279761344e-02    1.0206646094e+05
    3.1295452267e-02    1.0207064844e+05
    3.1311132014e-02    1.0207431250e+05
    3.1326796860e-02    1.0207903906e+05
    3.1342446804e-02    1.0208296094e+05
    3.1358085573e-02    1.0208710156e+05
    3.1373709440e-02    1.0208174219e+05
    3.1389318407e-02    1.0208359375e+05
    3.1404916197e-02    1.0208757031e+05
    3.1420499086e-02    1.0208912500e+05
    3.1436067075e-02    1.0209052344e+05
    3.1451620162e-02    1.0208933594e+05
    3.1467158347e-02    1.0209036719e+05
    3.1482685357e-02    1.0208852344e+05
    3.1498193741e-02    1.0208992969e+05
    3.1513694674e-02    1.0209183594e+05
    3.1529176980e-02    1.0209381250e+05
    3.1544648111e-02    1.0209691406e+05
    3.1560108066e-02    1.0209878906e+05
    3.1575553119e-02    1.0210056250e+05
    3.1590986997e-02    1.0210102344e+05
    3.1606405973e-02    1.0209552344e+05
    3.1621813774e-02    1.0209439844e+05
    3.1637206674e-02    1.0209525781e+05
    3.1652588397e-02    1.0209602344e+05
    3.1667951494e-02    1.0209550781e+05
    3.1683307141e-02    1.0209606250e+05
    3.1698647887e-02    1.0209652344e+05
    3.1713977456e-02    1.0209668750e+05
    3.1729292125e-02    1.0208847656e+05
    3.1744595617e-02    1.0208671875e+05
    3.1759884208e-02    1.0207659375e+05
    3.1775161624e-02    1.0207643750e+05
    3.1790427864e-02    1.0207442969e+05
    3.1805675477e-02    1.0207228125e+05
    3.1820915639e-02    1.0206593750e+05
    3.1836140901e-02    1.0206424219e+05
    3.1851354986e-02    1.0205913281e+05
    3.1866557896e-02    1.0205733594e+05
    3.1881745905e-02    1.0205544531e+05
    3.1896922737e-02    1.0205347656e+05
    3.1912088394e-02    1.0205147656e+05
    3.1927239150e-02    1.0204950000e+05
    3.1942378730e-02    1.0204932031e+05
    3.1957507133e-02    1.0204814844e+05
    3.1972620636e-02    1.0205111719e+05
    3.1987726688e-02    1.0205446875e+05
    3.2002814114e-02    1.0205321875e+05
    3.2017890364e-02    1.0205200781e+05
    3.2032959163e-02    1.0204733594e+05
    3.2048013061e-02    1.0204121094e+05
    3.2063052058e-02    1.0204024219e+05
    3.2078083605e-02    1.0203821094e+05
    3.2093103975e-02    1.0203677344e+05
    3.2108109444e-02    1.0203771094e+05
    3.2123107463e-02    1.0204109375e+05
    3.2138090581e-02    1.0203900781e+05
    3.2153062522e-02    1.0203449219e+05
    3.2168023288e-02    1.0203099219e+05
    3.2182972878e-02    1.0203552344e+05
    3.2197911292e-02    1.0203866406e+05
    3.2212834805e-02    1.0203832031e+05
    3.2227750868e-02    1.0203737500e+05
    3.2242652029e-02    1.0203594531e+05
    3.2257542014e-02    1.0203575000e+05
    3.2272424549e-02    1.0203514844e+05
    3.2287292182e-02    1.0203409375e+05
    3.2302148640e-02    1.0203447656e+05
    3.2316997647e-02    1.0204371094e+05
    3.2331831753e-02    1.0204328125e+05
    3.2346658409e-02    1.0204397656e+05
    3.2361470163e-02    1.0203831250e+05
    3.2376270741e-02    1.0203710156e+05
    3.2391063869e-02    1.0203347656e+05
    3.2405842096e-02    1.0203341406e+05
    3.2420612872e-02    1.0204261719e+05
    3.2435368747e-02    1.0204221094e+05
    3.2450113446e-02    1.0204299219e+05
    3.2464850694e-02    1.0204321094e+05
    3.2479573041e-02    1.0204336719e+05
    3.2494287938e-02    1.0204346875e+05
    3.2508991659e-02    1.0204131250e+05
    3.2523684204e-02    1.0203921094e+05
    3.2538365573e-02    1.0204396094e+05
    3.2553035766e-02    1.0204441406e+05
    3.2567698509e-02    1.0204506250e+05
    3.2582346350e-02    1.0204825000e+05
    3.2596986741e-02    1.0205489844e+05
    3.2611619681e-02    1.0205527344e+05
    3.2626237720e-02    1.0204914844e+05
    3.2640848309e-02    1.0204815625e+05
    3.2655447721e-02    1.0204867969e+05
    3.2670035958e-02    1.0204869531e+05
    3.2684613019e-02    1.0205183594e+05
    3.2699178904e-02    1.0205578125e+05
    3.2713737339e-02    1.0205690625e+05
    3.2728284597e-02    1.0205608594e+05
    3.2742820680e-02    1.0205750781e+05
    3.2757349312e-02    1.0205496875e+05
    3.2771866769e-02    1.0205787500e+05
    3.2786373049e-02    1.0205846094e+05
    3.2800871879e-02    1.0205903906e+05
    3.2815355808e-02    1.0205793750e+05
    3.2829832286e-02    1.0205852344e+05
    3.2844301313e-02    1.0205840625e+05
    3.2858755440e-02    1.0205887500e+05
    3.2873202115e-02    1.0205927344e+05
    3.2887637615e-02    1.0205960156e+05
    3.2902065665e-02    1.0205935156e+05
    3.2916482538e-02    1.0205799219e+05
    3.2930891961e-02    1.0205824219e+05
    3.2945290208e-02    1.0206075000e+05
    3.2959677279e-02    1.0206053906e+05
    3.2974056900e-02    1.0206139844e+05
    3.2988425344e-02    1.0206157031e+05
    3.3002786338e-02    1.0206282031e+05
    3.3017136157e-02    1.0205935156e+05
    3.3031478524e-02    1.0205339844e+05
    3.3045809716e-02    1.0205200781e+05
    3.3060129732e-02    1.0205753125e+05
    3.3074442297e-02    1.0206082031e+05
    3.3088747412e-02    1.0206059375e+05
    3.3103041351e-02    1.0205349219e+05
    3.3117324114e-02    1.0204957031e+05
    3.3131599426e-02    1.0204896094e+05
    3.3145863563e-02    1.0204814844e+05
    3.3160120249e-02    1.0204721094e+05
    3.3174365759e-02    1.0204153906e+05
    3.3188603818e-02    1.0203665625e+05
    3.3202830702e-02    1.0203517969e+05
    3.3217050135e-02    1.0203242969e+05
    3.3231258392e-02    1.0203130469e+05
    3.3245459199e-02    1.0202900000e+05
    3.3259648830e-02    1.0202718750e+05
    3.3273831010e-02    1.0202422656e+05
    3.3288005739e-02    1.0202353906e+05
    3.3302169293e-02    1.0202109375e+05
    3.3316325396e-02    1.0201971875e+05
    3.3330474049e-02    1.0201268750e+05
    3.3344611526e-02    1.0201114844e+05
    3.3358741552e-02    1.0200428906e+05
    3.3372864127e-02    1.0200496094e+05
    3.3386975527e-02    1.0200450000e+05
    3.3401079476e-02    1.0200830469e+05
    3.3415172249e-02    1.0200292969e+05
    3.3429257572e-02    1.0199860156e+05
    3.3443335444e-02    1.0199747656e+05
    3.3457405865e-02    1.0199433594e+05
    3.3471468836e-02    1.0199709375e+05
    3.3485524356e-02    1.0199521875e+05
    3.3499568701e-02    1.0199331250e+05
    3.3513605595e-02    1.0198225000e+05
    3.3527631313e-02    1.0198596094e+05
    3.3541653305e-02    1.0198887500e+05
    3.3555664122e-02    1.0198727344e+05
    3.3569667488e-02    1.0198627344e+05
    3.3583663404e-02    1.0198421875e+05
    3.3597648144e-02    1.0198227344e+05
    3.3611625433e-02    1.0198046875e+05
    3.3625595272e-02    1.0198502344e+05
    3.3639557660e-02    1.0198413281e+05
    3.3653512597e-02    1.0198810156e+05
    3.3667460084e-02    1.0198756250e+05
    3.3681396395e-02    1.0198710156e+05
    3.3695328981e-02    1.0198683594e+05
    3.3709254116e-02    1.0198775781e+05
    3.3723168075e-02    1.0198757031e+05
    3.3737078309e-02    1.0198791406e+05
    3.3750977367e-02    1.0198819531e+05
    3.3764872700e-02    1.0198544531e+05
    3.3778760582e-02    1.0197808594e+05
    3.3792637289e-02    1.0197744531e+05
    3.3806510270e-02    1.0197912500e+05
    3.3820372075e-02    1.0198500000e+05
    3.3834230155e-02    1.0198414844e+05
    3.3848077059e-02    1.0198396094e+05
    3.3861916512e-02    1.0198383594e+05
    3.3875752240e-02    1.0198487500e+05
    3.3889576793e-02    1.0198466406e+05
    3.3903393894e-02    1.0198040625e+05
    3.3917203546e-02    1.0197993750e+05
    3.3931009471e-02    1.0197642969e+05
    3.3944804221e-02    1.0197233594e+05
    3.3958595246e-02    1.0197747656e+05
    3.3972378820e-02    1.0197103125e+05
    3.3986151218e-02    1.0197546094e+05
    3.3999919891e-02    1.0197433594e+05
    3.4013681114e-02    1.0197259375e+05
    3.4027434886e-02    1.0196968750e+05
    3.4041177481e-02    1.0196896094e+05
    3.4054916352e-02    1.0196697656e+05
    3.4068647772e-02    1.0196714844e+05
    3.4082375467e-02    1.0196610156e+05
    3.4096091986e-02    1.0196052344e+05
    3.4109804779e-02    1.0195822656e+05
    3.4123510122e-02    1.0195811719e+05
    3.4137208015e-02    1.0195689844e+05
    3.4150898457e-02    1.0195486719e+05
    3.4164581448e-02    1.0195303906e+05
    3.4178260714e-02    1.0195165625e+05
    3.4191932529e-02    1.0195021875e+05
    3.4205596894e-02    1.0195282031e+05
    3.4219253808e-02    1.0194677344e+05
    3.4232903272e-02    1.0194566406e+05
    3.4246545285e-02    1.0194271875e+05
    3.4260183573e-02    1.0194078906e+05
    3.4273810685e-02    1.0193412500e+05
    3.4287434071e-02    1.0193264844e+05
    3.4301050007e-02    1.0193006250e+05
    3.4314658493e-02    1.0192811719e+05
    3.4328263253e-02    1.0192628906e+05
    3.4341860563e-02    1.0192688281e+05
    3.4355450422e-02    1.0192646875e+05
    3.4369036555e-02    1.0192268750e+05
    3.4382611513e-02    1.0191997656e+05
    3.4396182746e-02    1.0192314844e+05
    3.4409742802e-02    1.0192150781e+05
    3.4423299134e-02    1.0191400000e+05
    3.4436848015e-02    1.0191216406e+05
    3.4450393170e-02    1.0191028906e+05
    3.4463927150e-02    1.0190836719e+05
    3.4477461129e-02    1.0190527344e+05
    3.4490987659e-02    1.0190332031e+05
    3.4504506737e-02    1.0190194531e+05
    3.4518022090e-02    1.0190057031e+05
    3.4531529993e-02    1.0189855469e+05
    3.4545030445e-02    1.0189638281e+05
    3.4558523446e-02    1.0189359375e+05
    3.4572008997e-02    1.0189188281e+05
    3.4585487098e-02    1.0188725781e+05
    3.4598957747e-02    1.0188415625e+05
    3.4612424672e-02    1.0188322656e+05
    3.4625884145e-02    1.0187882031e+05
    3.4639336169e-02    1.0187675000e+05
    3.4652780741e-02    1.0187416406e+05
    3.4666225314e-02    1.0187530469e+05
    3.4679658711e-02    1.0187428125e+05
    3.4693088382e-02    1.0187228125e+05
    3.4706510603e-02    1.0187160156e+05
    3.4719929099e-02    1.0186943750e+05
    3.4733340144e-02    1.0186846875e+05
    3.4746743739e-02    1.0186710156e+05
    3.4760143608e-02    1.0186641406e+05
    3.4773536026e-02    1.0186690625e+05
    3.4786924720e-02    1.0186800000e+05
    3.4800305963e-02    1.0186757031e+05
    3.4813679755e-02    1.0186268750e+05
    3.4827046096e-02    1.0186753906e+05
    3.4840408713e-02    1.0186127344e+05
    3.4853763878e-02    1.0185966406e+05
    3.4867111593e-02    1.0185862500e+05
    3.4880455583e-02    1.0185757031e+05
    3.4893795848e-02    1.0185650000e+05
    3.4907124937e-02    1.0185583594e+05
    3.4920454025e-02    1.0185514844e+05
    3.4933775663e-02    1.0185313281e+05
    3.4947093576e-02    1.0185103906e+05
    3.4960404038e-02    1.0184489844e+05
    3.4973710775e-02    1.0184319531e+05
    3.4987010062e-02    1.0184589844e+05
endcurve
