Curveplot
LS-DYNA keyword deck by LS-PrePost                          
Time
Pressure
Defined Connection
Pressure @ 73 #pts=1745
* Minval=     9.9467070312e+04 at time=         0.0165932719
* Maxval=     1.6733278125e+05 at time=         0.0073113050
    0.0000000000e+00    9.9996789062e+04
    3.3812357287e-05    9.9996789062e+04
    6.1326652940e-05    9.9999343750e+04
    8.9102875791e-05    9.9998398438e+04
    1.1682785407e-04    9.9997460938e+04
    1.4461828687e-04    9.9997742188e+04
    1.7236733402e-04    9.9999460938e+04
    2.0016246708e-04    1.0001043750e+05
    2.2795486439e-04    1.0000078906e+05
    2.5574557367e-04    9.9999664062e+04
    2.8353667585e-04    1.0000053906e+05
    3.1133697485e-04    9.9994531250e+04
    3.3912662184e-04    1.0000008594e+05
    3.6691734567e-04    9.9999023438e+04
    3.9470891352e-04    9.9999226562e+04
    4.2249175021e-04    9.9999648438e+04
    4.5027161832e-04    1.0000008594e+05
    4.7804549104e-04    1.0000265625e+05
    5.0581363030e-04    1.0000286719e+05
    5.3357944125e-04    1.0000252344e+05
    5.6134146871e-04    1.0000153906e+05
    5.8909942163e-04    1.0000110156e+05
    6.1685312539e-04    1.0000130469e+05
    6.4460188150e-04    1.0000175781e+05
    6.7234638846e-04    1.0000089844e+05
    7.0008635521e-04    9.9991210938e+04
    7.2782178177e-04    9.9990789062e+04
    7.5555208605e-04    1.0000084375e+05
    7.8327720985e-04    1.0001135156e+05
    8.1099680392e-04    1.0000734375e+05
    8.3871174138e-04    1.0000282031e+05
    8.6642213864e-04    9.9993054688e+04
    8.9412782108e-04    9.9991242188e+04
    9.2182843946e-04    1.0000127344e+05
    9.4952445943e-04    1.0000039844e+05
    9.7721535712e-04    1.0000177344e+05
    1.0049008997e-03    1.0000192969e+05
    1.0325826006e-03    1.0000200781e+05
    1.0602590628e-03    1.0000215625e+05
    1.0879321489e-03    1.0000185156e+05
    1.1155996472e-03    1.0000237500e+05
    1.1432634201e-03    9.9997312500e+04
    1.1709230021e-03    9.9992101562e+04
    1.1985785095e-03    9.9996429688e+04
    1.2262313394e-03    1.0000600000e+05
    1.2538790470e-03    1.0001006250e+05
    1.2815232622e-03    1.0000261719e+05
    1.3091630535e-03    9.9995187500e+04
    1.3368004002e-03    9.9995476562e+04
    1.3644339051e-03    1.0000616406e+05
    1.3920635683e-03    1.0002864844e+05
    1.4196902048e-03    1.0006096094e+05
    1.4473132323e-03    1.0011271875e+05
    1.4749332331e-03    1.0019097656e+05
    1.5025498578e-03    1.0032102344e+05
    1.5301633393e-03    1.0051210156e+05
    1.5577742597e-03    1.0077197656e+05
    1.5853822697e-03    1.0109691406e+05
    1.6129877185e-03    1.0147071094e+05
    1.6405890929e-03    1.0186515625e+05
    1.6681876732e-03    1.0225094531e+05
    1.6957829939e-03    1.0259746094e+05
    1.7233766848e-03    1.0287143750e+05
    1.7509678146e-03    1.0305080469e+05
    1.7785291420e-03    1.0313755469e+05
    1.8060547300e-03    1.0313605469e+05
    1.8335470231e-03    1.0305857031e+05
    1.8610082334e-03    1.0292172656e+05
    1.8884401070e-03    1.0275236719e+05
    1.9158447394e-03    1.0257077344e+05
    1.9432241097e-03    1.0241602344e+05
    1.9705800805e-03    1.0229099219e+05
    1.9979148638e-03    1.0222028906e+05
    2.0252298564e-03    1.0219308594e+05
    2.0525271539e-03    1.0221572656e+05
    2.0798076876e-03    1.0227224219e+05
    2.1070730872e-03    1.0234503906e+05
    2.1343247499e-03    1.0242200000e+05
    2.1615643054e-03    1.0247953906e+05
    2.1887931507e-03    1.0252383594e+05
    2.2160108201e-03    1.0254384375e+05
    2.2432196420e-03    1.0254402344e+05
    2.2704207804e-03    1.0251940625e+05
    2.2976147011e-03    1.0248399219e+05
    2.3248014040e-03    1.0243963281e+05
    2.3519827519e-03    1.0240822656e+05
    2.3791582789e-03    1.0239233594e+05
    2.4063293822e-03    1.0238481250e+05
    2.4334960617e-03    1.0238790625e+05
    2.4606597144e-03    1.0239903906e+05
    2.4878205732e-03    1.0241466406e+05
    2.5149781723e-03    1.0242936719e+05
    2.5421329774e-03    1.0243921094e+05
    2.5692859199e-03    1.0244047656e+05
    2.5964374654e-03    1.0244699219e+05
    2.6235871483e-03    1.0244731250e+05
    2.6507352013e-03    1.0243541406e+05
    2.6778825559e-03    1.0243364844e+05
    2.7050296776e-03    1.0242247656e+05
    2.7321761008e-03    1.0241602344e+05
    2.7593218256e-03    1.0241077344e+05
    2.7864677832e-03    1.0241396875e+05
    2.8136142064e-03    1.0242347656e+05
    2.8407603968e-03    1.0243539844e+05
    2.8679079842e-03    1.0244902344e+05
    2.8950548731e-03    1.0246547656e+05
    2.9222022276e-03    1.0248930469e+05
    2.9493502807e-03    1.0251578906e+05
    2.9764990322e-03    1.0257225000e+05
    3.0036487151e-03    1.0263939844e+05
    3.0307997949e-03    1.0272471094e+05
    3.0579508748e-03    1.0281342969e+05
    3.0851035845e-03    1.0291450781e+05
    3.1122572254e-03    1.0302200781e+05
    3.1394117977e-03    1.0312218750e+05
    3.1665677670e-03    1.0320460156e+05
    3.1937246677e-03    1.0326358594e+05
    3.2208829653e-03    1.0330269531e+05
    3.2480424270e-03    1.0330384375e+05
    3.2752046827e-03    1.0329593750e+05
    3.2952371985e-03    1.0325946875e+05
    3.3145032357e-03    1.0322681250e+05
    3.3336398192e-03    1.0318103906e+05
    3.3528339118e-03    1.0313811719e+05
    3.3720366191e-03    1.0309928125e+05
    3.3912549261e-03    1.0305407031e+05
    3.4104890656e-03    1.0301478906e+05
    3.4297339153e-03    1.0298000000e+05
    3.4486323129e-03    1.0293377344e+05
    3.4671388566e-03    1.0288822656e+05
    3.4854323603e-03    1.0283164844e+05
    3.5036695190e-03    1.0277137500e+05
    3.5219141282e-03    1.0270655469e+05
    3.5401545465e-03    1.0262808594e+05
    3.5583588760e-03    1.0255653906e+05
    3.5765271168e-03    1.0248827344e+05
    3.5946895368e-03    1.0242835156e+05
    3.6139658187e-03    1.0237280469e+05
    3.6330535077e-03    1.0232558594e+05
    3.6521453876e-03    1.0228859375e+05
    3.6699753255e-03    1.0225528906e+05
    3.6875614896e-03    1.0223102344e+05
    3.7050142419e-03    1.0220546094e+05
    3.7224807311e-03    1.0219157031e+05
    3.7400643341e-03    1.0217910156e+05
    3.7577797193e-03    1.0216784375e+05
    3.7755726371e-03    1.0215977344e+05
    3.7933769636e-03    1.0214784375e+05
    3.8111612666e-03    1.0213991406e+05
    3.8289318327e-03    1.0213708594e+05
    3.8467168342e-03    1.0212634375e+05
    3.8645383902e-03    1.0212497656e+05
    3.8824023213e-03    1.0211630469e+05
    3.9002960548e-03    1.0210065625e+05
    3.9182156324e-03    1.0208278125e+05
    3.9361710660e-03    1.0206533594e+05
    3.9541716687e-03    1.0204772656e+05
    3.9733103476e-03    1.0203028125e+05
    3.9924201556e-03    1.0201467969e+05
    4.0104058571e-03    1.0200711719e+05
    4.0284004062e-03    1.0198974219e+05
    4.0464363992e-03    1.0198530469e+05
    4.0656095371e-03    1.0198059375e+05
    4.0847789496e-03    1.0197418750e+05
    4.1039343923e-03    1.0196228906e+05
    4.1219722480e-03    1.0194936719e+05
    4.1400394402e-03    1.0194594531e+05
    4.1591953486e-03    1.0193391406e+05
    4.1784178466e-03    1.0192700781e+05
    4.1976389475e-03    1.0192115625e+05
    4.2168586515e-03    1.0191944531e+05
    4.2360713705e-03    1.0191153906e+05
    4.2552771047e-03    1.0190021094e+05
    4.2744791135e-03    1.0188949219e+05
    4.2936825193e-03    1.0187697656e+05
    4.3128933758e-03    1.0186484375e+05
    4.3321144767e-03    1.0185221875e+05
    4.3513495475e-03    1.0183805469e+05
    4.3705995195e-03    1.0182183594e+05
    4.3898657896e-03    1.0180421875e+05
    4.4091497548e-03    1.0178547656e+05
    4.4284537435e-03    1.0175767969e+05
    4.4477786869e-03    1.0171963281e+05
    4.4671236537e-03    1.0166806250e+05
    4.4864914380e-03    1.0162064844e+05
    4.5058806427e-03    1.0155603906e+05
    4.5252908021e-03    1.0148327344e+05
    4.5447219163e-03    1.0140452344e+05
    4.5641721226e-03    1.0131837500e+05
    4.5836409554e-03    1.0121814844e+05
    4.6031279489e-03    1.0111096094e+05
    4.6226321720e-03    1.0098903125e+05
    4.6421540901e-03    1.0086659375e+05
    4.6616927721e-03    1.0073835156e+05
    4.6812482178e-03    1.0061274219e+05
    4.7008208930e-03    1.0049471875e+05
    4.7204112634e-03    1.0039147656e+05
    4.7400193289e-03    1.0030736719e+05
    4.7596455552e-03    1.0023277344e+05
    4.7792894766e-03    1.0018121094e+05
    4.7989510931e-03    1.0015696094e+05
    4.8186304048e-03    1.0014475000e+05
    4.8383255489e-03    1.0015475781e+05
    4.8580355942e-03    1.0018389844e+05
    4.8777610064e-03    1.0023242969e+05
    4.8975008540e-03    1.0028571094e+05
    4.9172551371e-03    1.0034703906e+05
    4.9370229244e-03    1.0040933594e+05
    4.9568060786e-03    1.0047278906e+05
    4.9766036682e-03    1.0052846094e+05
    4.9964170903e-03    1.0058213281e+05
    5.0162458792e-03    1.0061415625e+05
    5.0360900350e-03    1.0064681250e+05
    5.0559476949e-03    1.0066575000e+05
    5.0758207217e-03    1.0067528125e+05
    5.0957072526e-03    1.0068014844e+05
    5.1156077534e-03    1.0067528906e+05
    5.1355226897e-03    1.0066344531e+05
    5.1554525271e-03    1.0065097656e+05
    5.1753963344e-03    1.0062827344e+05
    5.1953555085e-03    1.0061603906e+05
    5.2153295837e-03    1.0060018750e+05
    5.2353194915e-03    1.0058197656e+05
    5.2553247660e-03    1.0057660156e+05
    5.2753463387e-03    1.0057566406e+05
    5.2953832783e-03    1.0057758594e+05
    5.3154369816e-03    1.0058036719e+05
    5.3355065174e-03    1.0058075781e+05
    5.3555918857e-03    1.0059153125e+05
    5.3756926209e-03    1.0059896875e+05
    5.3958082572e-03    1.0061438281e+05
    5.4159392603e-03    1.0062866406e+05
    5.4360851645e-03    1.0063807031e+05
    5.4562464356e-03    1.0064880469e+05
    5.4764230736e-03    1.0065935156e+05
    5.4966160096e-03    1.0065978125e+05
    5.5168238468e-03    1.0066485156e+05
    5.5370470509e-03    1.0066585156e+05
    5.5572865531e-03    1.0067066406e+05
    5.5775423534e-03    1.0067734375e+05
    5.5978130549e-03    1.0067353125e+05
    5.6181000546e-03    1.0067068750e+05
    5.6384028867e-03    1.0067240625e+05
    5.6587206200e-03    1.0067458594e+05
    5.6790532544e-03    1.0067821875e+05
    5.6994007900e-03    1.0068087500e+05
    5.7197632268e-03    1.0068353125e+05
    5.7401410304e-03    1.0068633594e+05
    5.7605337352e-03    1.0068808594e+05
    5.7809422724e-03    1.0069128906e+05
    5.8013652451e-03    1.0069127344e+05
    5.8218040504e-03    1.0069914844e+05
    5.8422577567e-03    1.0070164844e+05
    5.8627268299e-03    1.0070490625e+05
    5.8832112700e-03    1.0071802344e+05
    5.9037101455e-03    1.0072296875e+05
    5.9242248535e-03    1.0072850781e+05
    5.9447535314e-03    1.0073202344e+05
    5.9641525149e-03    1.0073721094e+05
    5.9830932878e-03    1.0074217969e+05
    6.0020405799e-03    1.0074658594e+05
    6.0210367665e-03    1.0074986719e+05
    6.0400799848e-03    1.0075489844e+05
    6.0591096990e-03    1.0075893750e+05
    6.0781282373e-03    1.0077286719e+05
    6.0972142965e-03    1.0077799219e+05
    6.1162756756e-03    1.0079083594e+05
    6.1353649944e-03    1.0079930469e+05
    6.1544459313e-03    1.0080477344e+05
    6.1734300107e-03    1.0080553125e+05
    6.1924448237e-03    1.0081525000e+05
    6.2115197070e-03    1.0081990625e+05
    6.2306127511e-03    1.0082483594e+05
    6.2497169711e-03    1.0083999219e+05
    6.2688281760e-03    1.0085593750e+05
    6.2879407778e-03    1.0086444531e+05
    6.3070552424e-03    1.0088133594e+05
    6.3261794858e-03    1.0088983594e+05
    6.3453060575e-03    1.0090817969e+05
    6.3644465990e-03    1.0092635156e+05
    6.3835908659e-03    1.0094778906e+05
    6.4027444459e-03    1.0096896875e+05
    6.4219115302e-03    1.0098183594e+05
    6.4410855994e-03    1.0100419531e+05
    6.4602680504e-03    1.0101774219e+05
    6.4794607460e-03    1.0103052344e+05
    6.4986641519e-03    1.0104288281e+05
    6.5178787336e-03    1.0105550781e+05
    6.5371058881e-03    1.0105958594e+05
    6.5563363023e-03    1.0106464844e+05
    6.5755699761e-03    1.0106832031e+05
    6.5948092379e-03    1.0107175000e+05
    6.6140629351e-03    1.0107139844e+05
    6.6333152354e-03    1.0107058594e+05
    6.6525745206e-03    1.0106747656e+05
    6.6718445159e-03    1.0107097656e+05
    6.6911154427e-03    1.0107019531e+05
    6.7104012705e-03    1.0106527344e+05
    6.7296870984e-03    1.0106843750e+05
    6.7489854991e-03    1.0106730469e+05
    6.7682852969e-03    1.0106647656e+05
    6.7875892855e-03    1.0106940625e+05
    6.8069072440e-03    1.0107081250e+05
    6.8262196146e-03    1.0107302344e+05
    6.8455408327e-03    1.0106565625e+05
    6.8648783490e-03    1.0106575000e+05
    6.8842126057e-03    1.0105980469e+05
    6.9035501219e-03    1.0106043750e+05
    6.9228983484e-03    1.0106106250e+05
    6.9422605447e-03    1.0106164844e+05
    6.9616222754e-03    1.0106233594e+05
    6.9809844717e-03    1.0106671094e+05
    7.0003494620e-03    1.0107897656e+05
    7.0197195746e-03    1.0110766406e+05
    7.0390999317e-03    1.0117637500e+05
    7.0584909990e-03    1.0130617969e+05
    7.0778946392e-03    1.0158378906e+05
    7.0973108523e-03    1.0213381250e+05
    7.1167377755e-03    1.0321446875e+05
    7.1361698210e-03    1.0523652344e+05
    7.1556069888e-03    1.0876777344e+05
    7.1750483476e-03    1.1439853906e+05
    7.1944966912e-03    1.2243590625e+05
    7.2139529511e-03    1.3253195312e+05
    7.2334166616e-03    1.4348779688e+05
    7.2528840974e-03    1.5357901562e+05
    7.2723543271e-03    1.6125154688e+05
    7.2918278165e-03    1.6575626562e+05
    7.3113050312e-03    1.6733278125e+05
    7.3307845742e-03    1.6680071875e+05
    7.3502692394e-03    1.6515860938e+05
    7.3697618209e-03    1.6321060938e+05
    7.3892641813e-03    1.6151460938e+05
    7.4087800458e-03    1.6017173438e+05
    7.4282912537e-03    1.5907275000e+05
    7.4477996677e-03    1.5802537500e+05
    7.4673094787e-03    1.5685360938e+05
    7.4868267402e-03    1.5545331250e+05
    7.5063589029e-03    1.5382404688e+05
    7.5258887373e-03    1.5202732812e+05
    7.5454111211e-03    1.5018559375e+05
    7.5649353676e-03    1.4838454688e+05
    7.5844703242e-03    1.4670828125e+05
    7.6040057465e-03    1.4515457812e+05
    7.6235276647e-03    1.4373150000e+05
    7.6430505142e-03    1.4240078125e+05
    7.6625877991e-03    1.4113573438e+05
    7.6821087860e-03    1.3989953125e+05
    7.7016241848e-03    1.3869328125e+05
    7.7211544849e-03    1.3751714062e+05
    7.7406810597e-03    1.3638221875e+05
    7.7602043748e-03    1.3530078125e+05
    7.7797495760e-03    1.3428250000e+05
    7.7992938459e-03    1.3332392188e+05
    7.8188432381e-03    1.3242906250e+05
    7.8384252265e-03    1.3157985938e+05
    7.8580006957e-03    1.3077567969e+05
    7.8775910661e-03    1.3000725781e+05
    7.8972103074e-03    1.2926344531e+05
    7.9168286175e-03    1.2854544531e+05
    7.9364804551e-03    1.2785768750e+05
    7.9561360180e-03    1.2717753125e+05
    7.9758102074e-03    1.2652753125e+05
    7.9955114052e-03    1.2589630469e+05
    8.0152126029e-03    1.2528267969e+05
    8.0349491909e-03    1.2468296094e+05
    8.0546662211e-03    1.2410265625e+05
    8.0743944272e-03    1.2353541406e+05
    8.0941170454e-03    1.2297617969e+05
    8.1138620153e-03    1.2244027344e+05
    8.1336386502e-03    1.2192871094e+05
    8.1534720957e-03    1.2144297656e+05
    8.1733558327e-03    1.2098853906e+05
    8.1932730973e-03    1.2057210156e+05
    8.2132071257e-03    1.2018997656e+05
    8.2330890000e-03    1.1984406250e+05
    8.2529615611e-03    1.1953285156e+05
    8.2727763802e-03    1.1924703906e+05
    8.2926023751e-03    1.1898686719e+05
    8.3124246448e-03    1.1873169531e+05
    8.3322748542e-03    1.1849127344e+05
    8.3521194756e-03    1.1825828906e+05
    8.3719678223e-03    1.1803002344e+05
    8.3917891607e-03    1.1779837500e+05
    8.4116021171e-03    1.1757990625e+05
    8.4314141423e-03    1.1736890625e+05
    8.4512168542e-03    1.1717231250e+05
    8.4710381925e-03    1.1698581250e+05
    8.4908353165e-03    1.1681306250e+05
    8.5106678307e-03    1.1665285156e+05
    8.5304882377e-03    1.1649957031e+05
    8.5503393784e-03    1.1634305469e+05
    8.5699046031e-03    1.1620741406e+05
    8.5892248899e-03    1.1607284375e+05
    8.6083402857e-03    1.1593907031e+05
    8.6272666231e-03    1.1581493750e+05
    8.6460309103e-03    1.1569447656e+05
    8.6646731943e-03    1.1557177344e+05
    8.6832325906e-03    1.1545105469e+05
    8.7017398328e-03    1.1533717969e+05
    8.7202098221e-03    1.1522002344e+05
    8.7386453524e-03    1.1510766406e+05
    8.7570473552e-03    1.1499906250e+05
    8.7753897533e-03    1.1489631250e+05
    8.7936492637e-03    1.1479697656e+05
    8.8118780404e-03    1.1470899219e+05
    8.8300397620e-03    1.1461460156e+05
    8.8481390849e-03    1.1452507031e+05
    8.8662039489e-03    1.1443671875e+05
    8.8842641562e-03    1.1434314844e+05
    8.9023411274e-03    1.1425378906e+05
    8.9204348624e-03    1.1415777344e+05
    8.9385388419e-03    1.1405762500e+05
    8.9566456154e-03    1.1395571094e+05
    8.9747514576e-03    1.1384785156e+05
    8.9928600937e-03    1.1372875781e+05
    9.0109808370e-03    1.1360928125e+05
    9.0291155502e-03    1.1348222656e+05
    9.0472688898e-03    1.1334647656e+05
    9.0654399246e-03    1.1320580469e+05
    9.0836230665e-03    1.1306046094e+05
    9.1018192470e-03    1.1291085156e+05
    9.1200266033e-03    1.1275709375e+05
    9.1382460669e-03    1.1261042969e+05
    9.1564757749e-03    1.1246416406e+05
    9.1747231781e-03    1.1232755469e+05
    9.1929892078e-03    1.1219677344e+05
    9.2112747952e-03    1.1207903906e+05
    9.2295790091e-03    1.1197017969e+05
    9.2479009181e-03    1.1187225781e+05
    9.2662386596e-03    1.1179024219e+05
    9.2845931649e-03    1.1171680469e+05
    9.3029672280e-03    1.1165110156e+05
    9.3213599175e-03    1.1159775000e+05
    9.3397712335e-03    1.1154635156e+05
    9.3582011759e-03    1.1150177344e+05
    9.3766497448e-03    1.1146053906e+05
    9.3951150775e-03    1.1141339844e+05
    9.4135999680e-03    1.1136714844e+05
    9.4321016222e-03    1.1131962500e+05
    9.4506228343e-03    1.1127003906e+05
    9.4691645354e-03    1.1121516406e+05
    9.4877239317e-03    1.1115616406e+05
    9.5063010231e-03    1.1109012500e+05
    9.5248948783e-03    1.1102440625e+05
    9.5435054973e-03    1.1094902344e+05
    9.5621328801e-03    1.1087272656e+05
    9.5807760954e-03    1.1079725000e+05
    9.5994332805e-03    1.1072609375e+05
    9.6181081608e-03    1.1065334375e+05
    9.6367979422e-03    1.1059250000e+05
    9.6555035561e-03    1.1053233594e+05
    9.6742231399e-03    1.1047158594e+05
    9.6929576248e-03    1.1041381250e+05
    9.7117051482e-03    1.1036267969e+05
    9.7304685041e-03    1.1031760156e+05
    9.7492448986e-03    1.1027349219e+05
    9.7680361941e-03    1.1023741406e+05
    9.7868405282e-03    1.1019553906e+05
    9.8056588322e-03    1.1016003906e+05
    9.8244920373e-03    1.1012371094e+05
    9.8433364183e-03    1.1008071875e+05
    9.8621929064e-03    1.1003518750e+05
    9.8810633644e-03    1.0998350000e+05
    9.8999459296e-03    1.0992989844e+05
    9.9188406020e-03    1.0987163281e+05
    9.9377483130e-03    1.0981553906e+05
    9.9566690624e-03    1.0975806250e+05
    9.9756028503e-03    1.0970060156e+05
    9.9945487455e-03    1.0964482031e+05
    1.0013507679e-02    1.0959175000e+05
    1.0032479651e-02    1.0954050781e+05
    1.0051463731e-02    1.0949324219e+05
    1.0070459917e-02    1.0944434375e+05
    1.0089469142e-02    1.0940258594e+05
    1.0108492337e-02    1.0936235156e+05
    1.0127528571e-02    1.0932411719e+05
    1.0146577843e-02    1.0929685156e+05
    1.0165639222e-02    1.0926117969e+05
    1.0184712708e-02    1.0923075000e+05
    1.0203798302e-02    1.0919513281e+05
    1.0222896002e-02    1.0915914844e+05
    1.0242006741e-02    1.0912050000e+05
    1.0261129588e-02    1.0907446094e+05
    1.0280264542e-02    1.0902866406e+05
    1.0299413465e-02    1.0897591406e+05
    1.0318575427e-02    1.0891861719e+05
    1.0337748565e-02    1.0885853906e+05
    1.0356934741e-02    1.0878633594e+05
    1.0376133956e-02    1.0871113281e+05
    1.0395346209e-02    1.0863613281e+05
    1.0414571501e-02    1.0855750781e+05
    1.0433809832e-02    1.0847610156e+05
    1.0453061201e-02    1.0839733594e+05
    1.0472324677e-02    1.0832019531e+05
    1.0491601191e-02    1.0824310156e+05
    1.0510892607e-02    1.0816968750e+05
    1.0530196130e-02    1.0809643750e+05
    1.0549513623e-02    1.0802297656e+05
    1.0568842292e-02    1.0794686719e+05
    1.0588183999e-02    1.0787880469e+05
    1.0607538745e-02    1.0781136719e+05
    1.0626907460e-02    1.0775158594e+05
    1.0646289214e-02    1.0768946875e+05
    1.0665684007e-02    1.0763660156e+05
    1.0685092770e-02    1.0757916406e+05
    1.0704516433e-02    1.0751985156e+05
    1.0723951273e-02    1.0746264844e+05
    1.0743400082e-02    1.0741346094e+05
    1.0762862861e-02    1.0735921094e+05
    1.0782338679e-02    1.0730341406e+05
    1.0801829398e-02    1.0724714844e+05
    1.0821334086e-02    1.0719158594e+05
    1.0840852745e-02    1.0713664844e+05
    1.0860386305e-02    1.0708182031e+05
    1.0879932903e-02    1.0702775000e+05
    1.0899493471e-02    1.0697336719e+05
    1.0919069871e-02    1.0692460156e+05
    1.0938662104e-02    1.0687643750e+05
    1.0958270170e-02    1.0682880469e+05
    1.0977892205e-02    1.0677964844e+05
    1.0997531936e-02    1.0672360156e+05
    1.1017187499e-02    1.0666961719e+05
    1.1036860757e-02    1.0661694531e+05
    1.1056551710e-02    1.0656541406e+05
    1.1076259427e-02    1.0650375000e+05
    1.1095987633e-02    1.0644165625e+05
    1.1115733534e-02    1.0638162500e+05
    1.1135498993e-02    1.0632668750e+05
    1.1155283079e-02    1.0627496094e+05
    1.1175086722e-02    1.0622421094e+05
    1.1194912717e-02    1.0617403906e+05
    1.1214758269e-02    1.0611960156e+05
    1.1234625243e-02    1.0607035156e+05
    1.1254511774e-02    1.0601183594e+05
    1.1274418794e-02    1.0595396094e+05
    1.1294347234e-02    1.0589621875e+05
    1.1314296164e-02    1.0583928125e+05
    1.1334266514e-02    1.0577696875e+05
    1.1354257353e-02    1.0571353125e+05
    1.1374268681e-02    1.0564622656e+05
    1.1394302361e-02    1.0556838281e+05
    1.1414355598e-02    1.0548410156e+05
    1.1434430256e-02    1.0539932031e+05
    1.1454525404e-02    1.0531183594e+05
    1.1474640109e-02    1.0522121094e+05
    1.1494777165e-02    1.0513319531e+05
    1.1514934711e-02    1.0504750781e+05
    1.1535113677e-02    1.0495953906e+05
    1.1555313133e-02    1.0487764844e+05
    1.1575534008e-02    1.0479583594e+05
    1.1595774442e-02    1.0472616406e+05
    1.1616035365e-02    1.0466221094e+05
    1.1636316776e-02    1.0460596094e+05
    1.1656619608e-02    1.0455128125e+05
    1.1676942930e-02    1.0450477344e+05
    1.1697287671e-02    1.0445464844e+05
    1.1717652902e-02    1.0439746094e+05
    1.1738038622e-02    1.0433492969e+05
    1.1758443899e-02    1.0425797656e+05
    1.1778870597e-02    1.0417375000e+05
    1.1799318716e-02    1.0408374219e+05
    1.1819788255e-02    1.0397633594e+05
    1.1840280145e-02    1.0386072656e+05
    1.1860790662e-02    1.0374737500e+05
    1.1881321669e-02    1.0362258594e+05
    1.1901874095e-02    1.0350136719e+05
    1.1922447011e-02    1.0337978125e+05
    1.1943042278e-02    1.0326821875e+05
    1.1963658035e-02    1.0316889844e+05
    1.1984295212e-02    1.0307847656e+05
    1.2004952878e-02    1.0299332031e+05
    1.2025631964e-02    1.0292111719e+05
    1.2046331540e-02    1.0285800000e+05
    1.2067052536e-02    1.0280466406e+05
    1.2087795883e-02    1.0277002344e+05
    1.2108558789e-02    1.0274125781e+05
    1.2129344046e-02    1.0272928906e+05
    1.2150149792e-02    1.0271878906e+05
    1.2170976959e-02    1.0272427344e+05
    1.2191825546e-02    1.0273625781e+05
    1.2212695554e-02    1.0275694531e+05
    1.2233586982e-02    1.0278514844e+05
    1.2254500762e-02    1.0282446094e+05
    1.2275436893e-02    1.0286053906e+05
    1.2296394445e-02    1.0289635156e+05
    1.2317374349e-02    1.0293669531e+05
    1.2338375673e-02    1.0297025781e+05
    1.2359398417e-02    1.0300721875e+05
    1.2380442582e-02    1.0305046094e+05
    1.2401508167e-02    1.0309081250e+05
    1.2422595173e-02    1.0313147656e+05
    1.2443703599e-02    1.0316749219e+05
    1.2464834377e-02    1.0319792969e+05
    1.2485986575e-02    1.0322237500e+05
    1.2507158332e-02    1.0324578125e+05
    1.2528351508e-02    1.0326800000e+05
    1.2549565174e-02    1.0328475000e+05
    1.2570801191e-02    1.0330235156e+05
    1.2592058629e-02    1.0331469531e+05
    1.2613337487e-02    1.0333996094e+05
    1.2634636834e-02    1.0337016406e+05
    1.2655957602e-02    1.0341739844e+05
    1.2677297927e-02    1.0349228906e+05
    1.2698660605e-02    1.0360617969e+05
    1.2720043771e-02    1.0376962500e+05
    1.2741449289e-02    1.0401047656e+05
    1.2762876227e-02    1.0433796875e+05
    1.2784325518e-02    1.0478192969e+05
    1.2805794366e-02    1.0535753906e+05
    1.2827285565e-02    1.0606712500e+05
    1.2848797254e-02    1.0691455469e+05
    1.2870330364e-02    1.0788075781e+05
    1.2891885825e-02    1.0892028906e+05
    1.2913462706e-02    1.0997239844e+05
    1.2935061008e-02    1.1096569531e+05
    1.2956679799e-02    1.1181594531e+05
    1.2978320010e-02    1.1245991406e+05
    1.2999981642e-02    1.1284683594e+05
    1.3021663763e-02    1.1296585156e+05
    1.3043368235e-02    1.1281722656e+05
    1.3065092266e-02    1.1243187500e+05
    1.3086837716e-02    1.1185250000e+05
    1.3108605519e-02    1.1113186719e+05
    1.3130392879e-02    1.1032909375e+05
    1.3152201660e-02    1.0949993750e+05
    1.3174032792e-02    1.0870156250e+05
    1.3195885345e-02    1.0798213281e+05
    1.3217759319e-02    1.0736655469e+05
    1.3239653781e-02    1.0686508594e+05
    1.3261569664e-02    1.0646297656e+05
    1.3283506967e-02    1.0614264844e+05
    1.3305463828e-02    1.0584913281e+05
    1.3327440247e-02    1.0555947656e+05
    1.3349435292e-02    1.0523890625e+05
    1.3371448033e-02    1.0486907031e+05
    1.3393475674e-02    1.0445075781e+05
    1.3415516354e-02    1.0398760156e+05
    1.3437564485e-02    1.0350413281e+05
    1.3459613547e-02    1.0301671094e+05
    1.3481658883e-02    1.0255572656e+05
    1.3503690250e-02    1.0214421094e+05
    1.3525702059e-02    1.0178775000e+05
    1.3547683135e-02    1.0150622656e+05
    1.3569628820e-02    1.0129399219e+05
    1.3591531664e-02    1.0114375000e+05
    1.3613392599e-02    1.0105310156e+05
    1.3635210693e-02    1.0100561719e+05
    1.3656994328e-02    1.0099409375e+05
    1.3678749092e-02    1.0100346875e+05
    1.3700488023e-02    1.0103171875e+05
    1.3722228818e-02    1.0106405469e+05
    1.3743981719e-02    1.0109224219e+05
    1.3765762560e-02    1.0112409375e+05
    1.3787578791e-02    1.0115353906e+05
    1.3809437864e-02    1.0117837500e+05
    1.3831341639e-02    1.0120157031e+05
    1.3853288256e-02    1.0121699219e+05
    1.3875273056e-02    1.0122157031e+05
    1.3897285797e-02    1.0121338281e+05
    1.3919321820e-02    1.0119471094e+05
    1.3941374607e-02    1.0116921094e+05
    1.3963440433e-02    1.0113024219e+05
    1.3985517435e-02    1.0108671875e+05
    1.4007603750e-02    1.0103452344e+05
    1.4029704034e-02    1.0097750781e+05
    1.4051820152e-02    1.0091896875e+05
    1.4073957689e-02    1.0086410156e+05
    1.4096121304e-02    1.0082100000e+05
    1.4118315652e-02    1.0080174219e+05
    1.4140545391e-02    1.0080575000e+05
    1.4162814245e-02    1.0083772656e+05
    1.4185124077e-02    1.0088510156e+05
    1.4207473956e-02    1.0094816406e+05
    1.4229862019e-02    1.0101390625e+05
    1.4252286404e-02    1.0108086719e+05
    1.4274741523e-02    1.0113734375e+05
    1.4297228307e-02    1.0117778125e+05
    1.4319745824e-02    1.0120705469e+05
    1.4342290349e-02    1.0121705469e+05
    1.4364863746e-02    1.0122161719e+05
    1.4387467876e-02    1.0122296094e+05
    1.4410103671e-02    1.0123339844e+05
    1.4432771131e-02    1.0125018750e+05
    1.4455472119e-02    1.0127919531e+05
    1.4478209428e-02    1.0131702344e+05
    1.4500979334e-02    1.0136266406e+05
    1.4523783699e-02    1.0141537500e+05
    1.4546621591e-02    1.0146503906e+05
    1.4569494873e-02    1.0150503906e+05
    1.4592399821e-02    1.0153091406e+05
    1.4615339227e-02    1.0155053906e+05
    1.4638305642e-02    1.0156369531e+05
    1.4661304653e-02    1.0156449219e+05
    1.4684336260e-02    1.0155905469e+05
    1.4707398601e-02    1.0155653906e+05
    1.4730494469e-02    1.0155321875e+05
    1.4753622934e-02    1.0155664844e+05
    1.4776783995e-02    1.0155940625e+05
    1.4799979515e-02    1.0156389844e+05
    1.4823205769e-02    1.0157221094e+05
    1.4846466482e-02    1.0157752344e+05
    1.4869757928e-02    1.0158035156e+05
    1.4893081971e-02    1.0158075781e+05
    1.4916437678e-02    1.0157724219e+05
    1.4939822257e-02    1.0157682031e+05
    1.4963239431e-02    1.0157202344e+05
    1.4986685477e-02    1.0155408594e+05
    1.5010161325e-02    1.0154321094e+05
    1.5033668838e-02    1.0152405469e+05
    1.5057205223e-02    1.0150625781e+05
    1.5080772340e-02    1.0148632031e+05
    1.5104367398e-02    1.0146409375e+05
    1.5127992257e-02    1.0144116406e+05
    1.5151646920e-02    1.0141172656e+05
    1.5175330453e-02    1.0138087500e+05
    1.5199041925e-02    1.0134175781e+05
    1.5222782269e-02    1.0130397656e+05
    1.5246548690e-02    1.0126553906e+05
    1.5270343982e-02    1.0122306250e+05
    1.5294168144e-02    1.0117963281e+05
    1.5318016522e-02    1.0114421875e+05
    1.5341891907e-02    1.0110531250e+05
    1.5365792438e-02    1.0107240625e+05
    1.5389721841e-02    1.0104942969e+05
    1.5413676389e-02    1.0102883594e+05
    1.5437657945e-02    1.0100911719e+05
    1.5461664647e-02    1.0098896875e+05
    1.5485695563e-02    1.0097853125e+05
    1.5509752557e-02    1.0096578906e+05
    1.5533835627e-02    1.0095335156e+05
    1.5557944775e-02    1.0093468750e+05
    1.5582079068e-02    1.0091677344e+05
    1.5606240369e-02    1.0088587500e+05
    1.5630424023e-02    1.0086435156e+05
    1.5654634684e-02    1.0084761719e+05
    1.5678871423e-02    1.0081922656e+05
    1.5703132376e-02    1.0079162500e+05
    1.5727419406e-02    1.0075182031e+05
    1.5751728788e-02    1.0071622656e+05
    1.5776060522e-02    1.0067959375e+05
    1.5800418332e-02    1.0064631250e+05
    1.5824800357e-02    1.0061686719e+05
    1.5849204734e-02    1.0058614844e+05
    1.5873633325e-02    1.0055096094e+05
    1.5898084268e-02    1.0051842969e+05
    1.5922557563e-02    1.0048825781e+05
    1.5947058797e-02    1.0045366406e+05
    1.5971582383e-02    1.0041859375e+05
    1.5996130183e-02    1.0038671094e+05
    1.6020702198e-02    1.0035028125e+05
    1.6045298427e-02    1.0031458594e+05
    1.6069920734e-02    1.0027866406e+05
    1.6094569117e-02    1.0024285156e+05
    1.6119243577e-02    1.0019760156e+05
    1.6143942252e-02    1.0015993750e+05
    1.6168667004e-02    1.0011102344e+05
    1.6193419695e-02    1.0007146094e+05
    1.6218200326e-02    1.0002080469e+05
    1.6243007034e-02    9.9978218750e+04
    1.6267839819e-02    9.9924632812e+04
    1.6292702407e-02    9.9880039062e+04
    1.6317596659e-02    9.9824210938e+04
    1.6342513263e-02    9.9773125000e+04
    1.6367461532e-02    9.9721945312e+04
    1.6392435879e-02    9.9677898438e+04
    1.6417443752e-02    9.9630468750e+04
    1.6442479566e-02    9.9591585938e+04
    1.6467543319e-02    9.9551054688e+04
    1.6492636874e-02    9.9512601562e+04
    1.6517756507e-02    9.9491687500e+04
    1.6542907804e-02    9.9475476562e+04
    1.6568088904e-02    9.9467843750e+04
    1.6593271866e-02    9.9467070312e+04
    1.6618426889e-02    9.9472476562e+04
    1.6643559560e-02    9.9484875000e+04
    1.6668669879e-02    9.9510960938e+04
    1.6693757847e-02    9.9542968750e+04
    1.6718825325e-02    9.9585875000e+04
    1.6743874177e-02    9.9634195312e+04
    1.6768900678e-02    9.9683187500e+04
    1.6793908551e-02    9.9735960938e+04
    1.6818899661e-02    9.9794085938e+04
    1.6843874007e-02    9.9859437500e+04
    1.6868829727e-02    9.9914945312e+04
    1.6893770546e-02    9.9974539062e+04
    1.6918692738e-02    1.0002999219e+05
    1.6943598166e-02    1.0007757031e+05
    1.6968490556e-02    1.0012527344e+05
    1.6993366182e-02    1.0016178906e+05
    1.7018226907e-02    1.0019509375e+05
    1.7043072730e-02    1.0022891406e+05
    1.7067901790e-02    1.0025735156e+05
    1.7092714086e-02    1.0028164844e+05
    1.7117511481e-02    1.0030572656e+05
    1.7142292112e-02    1.0032934375e+05
    1.7167057842e-02    1.0035347656e+05
    1.7191808671e-02    1.0037668750e+05
    1.7216544598e-02    1.0040580469e+05
    1.7241263762e-02    1.0043621875e+05
    1.7265968025e-02    1.0046836719e+05
    1.7290659249e-02    1.0050830469e+05
    1.7315333709e-02    1.0055672656e+05
    1.7339993268e-02    1.0060358594e+05
    1.7364639789e-02    1.0065597656e+05
    1.7389267683e-02    1.0070637500e+05
    1.7413880676e-02    1.0076247656e+05
    1.7438478768e-02    1.0082360156e+05
    1.7463061959e-02    1.0088188281e+05
    1.7487626523e-02    1.0094856250e+05
    1.7512176186e-02    1.0101391406e+05
    1.7536709085e-02    1.0107377344e+05
    1.7561223358e-02    1.0113699219e+05
    1.7585720867e-02    1.0120218750e+05
    1.7610201612e-02    1.0125869531e+05
    1.7634663731e-02    1.0131457031e+05
    1.7659107223e-02    1.0136490625e+05
    1.7683532089e-02    1.0141222656e+05
    1.7707940191e-02    1.0145535156e+05
    1.7732329667e-02    1.0149146094e+05
    1.7756698653e-02    1.0152065625e+05
    1.7781050876e-02    1.0154658594e+05
    1.7805384472e-02    1.0156950781e+05
    1.7829699442e-02    1.0159335156e+05
    1.7853999510e-02    1.0160503906e+05
    1.7878280953e-02    1.0161566406e+05
    1.7902545631e-02    1.0162337500e+05
    1.7926793545e-02    1.0163441406e+05
    1.7951028422e-02    1.0164627344e+05
    1.7975246534e-02    1.0165965625e+05
    1.7999447882e-02    1.0167277344e+05
    1.8023636192e-02    1.0168342969e+05
    1.8047811463e-02    1.0169767969e+05
    1.8071975559e-02    1.0171980469e+05
    1.8096126616e-02    1.0173252344e+05
    1.8120266497e-02    1.0174321875e+05
    1.8144397065e-02    1.0176455469e+05
    1.8168520182e-02    1.0177346094e+05
    1.8192630261e-02    1.0178010156e+05
    1.8216732889e-02    1.0179152344e+05
    1.8240824342e-02    1.0180397656e+05
    1.8264908344e-02    1.0182022656e+05
    1.8288983032e-02    1.0183177344e+05
    1.8313048407e-02    1.0184763281e+05
    1.8337102607e-02    1.0186452344e+05
    1.8361147493e-02    1.0188634375e+05
    1.8385183066e-02    1.0191371094e+05
    1.8409207463e-02    1.0195191406e+05
    1.8433224410e-02    1.0198339844e+05
    1.8457230181e-02    1.0203596875e+05
    1.8481226638e-02    1.0208339844e+05
    1.8505210057e-02    1.0214843750e+05
    1.8529184163e-02    1.0221896875e+05
    1.8553148955e-02    1.0229247656e+05
    1.8577100709e-02    1.0238103906e+05
    1.8601041287e-02    1.0247659375e+05
    1.8624972552e-02    1.0258390625e+05
    1.8648892641e-02    1.0270697656e+05
    1.8672801554e-02    1.0283394531e+05
    1.8696699291e-02    1.0296096875e+05
    1.8720587716e-02    1.0308178906e+05
    1.8744463101e-02    1.0320243750e+05
    1.8768329173e-02    1.0331011719e+05
    1.8792184070e-02    1.0340185156e+05
    1.8816027790e-02    1.0346910156e+05
    1.8839860335e-02    1.0350067969e+05
    1.8863683566e-02    1.0350631250e+05
    1.8887493759e-02    1.0348232031e+05
    1.8911294639e-02    1.0342377344e+05
    1.8935086206e-02    1.0333314844e+05
    1.8958866596e-02    1.0320402344e+05
    1.8982635811e-02    1.0303961719e+05
    1.9006397575e-02    1.0284189844e+05
    1.9030146301e-02    1.0261578906e+05
    1.9053885713e-02    1.0236905469e+05
    1.9077615812e-02    1.0211460156e+05
    1.9101334736e-02    1.0186200781e+05
    1.9125042483e-02    1.0162396094e+05
    1.9148740917e-02    1.0140312500e+05
    1.9172428176e-02    1.0121380469e+05
    1.9196104258e-02    1.0104878906e+05
    1.9219771028e-02    1.0091967969e+05
    1.9243424758e-02    1.0082193750e+05
    1.9267069176e-02    1.0076077344e+05
    1.9290700555e-02    1.0072525781e+05
    1.9314322621e-02    1.0071536719e+05
    1.9337931648e-02    1.0072425000e+05
    1.9361529499e-02    1.0074208594e+05
    1.9385114312e-02    1.0077042969e+05
    1.9408687949e-02    1.0080060156e+05
    1.9432250410e-02    1.0084308594e+05
    1.9455801696e-02    1.0088500781e+05
    1.9479339942e-02    1.0092610156e+05
    1.9502865151e-02    1.0097568750e+05
    1.9526379183e-02    1.0101733594e+05
    1.9549878314e-02    1.0106189844e+05
    1.9573366269e-02    1.0110489844e+05
    1.9596841186e-02    1.0115202344e+05
    1.9620303065e-02    1.0119478906e+05
    1.9643751904e-02    1.0124183594e+05
    1.9667187706e-02    1.0128871094e+05
    1.9690606743e-02    1.0133241406e+05
    1.9714014605e-02    1.0137646094e+05
    1.9737409428e-02    1.0142558594e+05
    1.9760791212e-02    1.0146866406e+05
    1.9784159958e-02    1.0151327344e+05
    1.9807513803e-02    1.0156180469e+05
    1.9830854610e-02    1.0162218750e+05
    1.9854182377e-02    1.0167731250e+05
    1.9877497107e-02    1.0174375000e+05
    1.9900798798e-02    1.0180619531e+05
    1.9924087450e-02    1.0187612500e+05
    1.9947361201e-02    1.0194078125e+05
    1.9970623776e-02    1.0199928125e+05
    1.9993871450e-02    1.0206305469e+05
    2.0017107949e-02    1.0211550000e+05
    2.0040329546e-02    1.0216141406e+05
    2.0063538104e-02    1.0220185156e+05
    2.0086731762e-02    1.0223771094e+05
    2.0109914243e-02    1.0226133594e+05
    2.0133081824e-02    1.0228939844e+05
    2.0156236365e-02    1.0230358594e+05
    2.0179376006e-02    1.0230437500e+05
    2.0202504471e-02    1.0231089844e+05
    2.0225618035e-02    1.0231380469e+05
    2.0248720422e-02    1.0231292969e+05
    2.0271807909e-02    1.0229750781e+05
    2.0294882357e-02    1.0227883594e+05
    2.0317947492e-02    1.0224757031e+05
    2.0340997726e-02    1.0222231250e+05
    2.0364036784e-02    1.0220303906e+05
    2.0387060940e-02    1.0217334375e+05
    2.0410073921e-02    1.0214346875e+05
    2.0433073863e-02    1.0211958594e+05
    2.0456060767e-02    1.0208528906e+05
    2.0479036495e-02    1.0206491406e+05
    2.0501999184e-02    1.0204539844e+05
    2.0524948835e-02    1.0203214844e+05
    2.0547885448e-02    1.0202439844e+05
    2.0570809022e-02    1.0201997656e+05
    2.0593719557e-02    1.0202137500e+05
    2.0616617054e-02    1.0202533594e+05
    2.0639499649e-02    1.0203278125e+05
    2.0662369207e-02    1.0205116406e+05
    2.0685223863e-02    1.0207196094e+05
    2.0708063617e-02    1.0209471094e+05
    2.0730890334e-02    1.0210878125e+05
    2.0753700286e-02    1.0212385156e+05
    2.0776495337e-02    1.0214366406e+05
    2.0799275488e-02    1.0216135156e+05
    2.0822042599e-02    1.0218335156e+05
    2.0844791085e-02    1.0219983594e+05
    2.0867524669e-02    1.0221127344e+05
    2.0890241489e-02    1.0222310156e+05
    2.0912945271e-02    1.0222847656e+05
    2.0935632288e-02    1.0223453906e+05
    2.0958306268e-02    1.0224496094e+05
    2.0980965346e-02    1.0225111719e+05
    2.1003607661e-02    1.0225230469e+05
    2.1026238799e-02    1.0225475781e+05
    2.1048855036e-02    1.0225366406e+05
    2.1071458235e-02    1.0224884375e+05
    2.1094048396e-02    1.0225142969e+05
    2.1116625518e-02    1.0225458594e+05
    2.1139191464e-02    1.0224928906e+05
    2.1161744371e-02    1.0224939844e+05
    2.1184286103e-02    1.0225268750e+05
    2.1206818521e-02    1.0225561719e+05
    2.1229337901e-02    1.0225467969e+05
    2.1251846105e-02    1.0224800000e+05
    2.1274344996e-02    1.0224433594e+05
    2.1296832711e-02    1.0223110156e+05
    2.1319312975e-02    1.0221584375e+05
    2.1341778338e-02    1.0220793750e+05
    2.1364232525e-02    1.0218915625e+05
    2.1386675537e-02    1.0217386719e+05
    2.1409107372e-02    1.0215185156e+05
    2.1431528032e-02    1.0213299219e+05
    2.1453931928e-02    1.0210792969e+05
    2.1476324648e-02    1.0208105469e+05
    2.1498700604e-02    1.0206103125e+05
    2.1521063522e-02    1.0203539844e+05
    2.1543409675e-02    1.0201575781e+05
    2.1565740928e-02    1.0198928125e+05
    2.1588053554e-02    1.0196716406e+05
    2.1610351279e-02    1.0194818750e+05
    2.1632634103e-02    1.0192560156e+05
    2.1654898301e-02    1.0190830469e+05
    2.1677147597e-02    1.0189717969e+05
    2.1699378267e-02    1.0187872656e+05
    2.1721594036e-02    1.0185644531e+05
    2.1743793041e-02    1.0184396094e+05
    2.1765975282e-02    1.0182738281e+05
    2.1788140759e-02    1.0182038281e+05
    2.1810289472e-02    1.0180522656e+05
    2.1832419559e-02    1.0179084375e+05
    2.1854531020e-02    1.0177856250e+05
    2.1876627579e-02    1.0177185156e+05
    2.1898705512e-02    1.0175924219e+05
    2.1920768544e-02    1.0175114844e+05
    2.1942811087e-02    1.0174272656e+05
    2.1964838728e-02    1.0173003125e+05
    2.1986849606e-02    1.0171814844e+05
    2.2008845583e-02    1.0171060156e+05
    2.2030822933e-02    1.0170535156e+05
    2.2052785382e-02    1.0169355469e+05
    2.2074732929e-02    1.0169132031e+05
    2.2096665576e-02    1.0168377344e+05
    2.2118583322e-02    1.0167503906e+05
    2.2140489891e-02    1.0167513281e+05
    2.2162377834e-02    1.0167652344e+05
    2.2184254602e-02    1.0167177344e+05
    2.2206118330e-02    1.0166735156e+05
    2.2227969021e-02    1.0166621094e+05
    2.2249806672e-02    1.0165953125e+05
    2.2271629423e-02    1.0166005469e+05
    2.2293440998e-02    1.0165609375e+05
    2.2315241396e-02    1.0165812500e+05
    2.2337028757e-02    1.0166516406e+05
    2.2358803079e-02    1.0166903906e+05
    2.2380566224e-02    1.0166809375e+05
    2.2402318195e-02    1.0166290625e+05
    2.2424057126e-02    1.0166058594e+05
    2.2445784882e-02    1.0165889844e+05
    2.2467501462e-02    1.0166217969e+05
    2.2489206865e-02    1.0166382031e+05
    2.2510899231e-02    1.0166105469e+05
    2.2532582283e-02    1.0165503906e+05
    2.2554252297e-02    1.0165171094e+05
    2.2575911134e-02    1.0164605469e+05
    2.2597560659e-02    1.0164581250e+05
    2.2619199008e-02    1.0164107031e+05
    2.2640828043e-02    1.0163621094e+05
    2.2662445903e-02    1.0163169531e+05
    2.2684050724e-02    1.0162768750e+05
    2.2705646232e-02    1.0162541406e+05
    2.2727232426e-02    1.0162642969e+05
    2.2748809308e-02    1.0162372656e+05
    2.2770375013e-02    1.0162042969e+05
    2.2791929543e-02    1.0161697656e+05
    2.2813472897e-02    1.0161541406e+05
    2.2835006937e-02    1.0161785156e+05
    2.2856531665e-02    1.0161734375e+05
    2.2878047079e-02    1.0162353906e+05
    2.2899549454e-02    1.0162578125e+05
    2.2921044379e-02    1.0162830469e+05
    2.2942528129e-02    1.0163058594e+05
    2.2964000702e-02    1.0163511719e+05
    2.2985465825e-02    1.0163960156e+05
    2.3006917909e-02    1.0165409375e+05
    2.3028360680e-02    1.0166121875e+05
    2.3049792275e-02    1.0166784375e+05
    2.3071214557e-02    1.0167507031e+05
    2.3092625663e-02    1.0169289844e+05
    2.3114029318e-02    1.0170169531e+05
    2.3135419935e-02    1.0170735156e+05
    2.3156799376e-02    1.0171250000e+05
    2.3178169504e-02    1.0171878906e+05
    2.3199530318e-02    1.0172514844e+05
    2.3220879957e-02    1.0173131250e+05
    2.3242218420e-02    1.0173542969e+05
    2.3263547570e-02    1.0173447656e+05
    2.3284865543e-02    1.0172680469e+05
    2.3306174204e-02    1.0172618750e+05
    2.3327469826e-02    1.0171603125e+05
    2.3348756135e-02    1.0170285156e+05
    2.3370031267e-02    1.0169728125e+05
    2.3391297087e-02    1.0168383594e+05
    2.3412553594e-02    1.0167347656e+05
    2.3433798924e-02    1.0165978125e+05
    2.3455033079e-02    1.0164458594e+05
    2.3476256058e-02    1.0162516406e+05
    2.3497469723e-02    1.0160427344e+05
    2.3518672213e-02    1.0158335156e+05
    2.3539865389e-02    1.0156633594e+05
    2.3561049253e-02    1.0154762500e+05
    2.3582221940e-02    1.0153791406e+05
    2.3603385314e-02    1.0152802344e+05
    2.3624535650e-02    1.0151650781e+05
    2.3645676672e-02    1.0150475781e+05
    2.3666808382e-02    1.0149603906e+05
    2.3687927052e-02    1.0149107031e+05
    2.3709038273e-02    1.0148783594e+05
    2.3730138317e-02    1.0149339844e+05
    2.3751227185e-02    1.0148947656e+05
    2.3772306740e-02    1.0149319531e+05
    2.3793375120e-02    1.0149275000e+05
    2.3814432323e-02    1.0149871875e+05
    2.3835480213e-02    1.0150241406e+05
    2.3856516927e-02    1.0150614844e+05
    2.3877544329e-02    1.0151306250e+05
    2.3898560554e-02    1.0151484375e+05
    2.3919565603e-02    1.0151655469e+05
    2.3940561339e-02    1.0152214844e+05
    2.3961545900e-02    1.0152046094e+05
    2.3982519284e-02    1.0152216406e+05
    2.4003483355e-02    1.0152234375e+05
    2.4024436250e-02    1.0152150781e+05
    2.4045377970e-02    1.0152002344e+05
    2.4066310376e-02    1.0151327344e+05
    2.4087233469e-02    1.0151075000e+05
    2.4108145386e-02    1.0150796094e+05
    2.4129044265e-02    1.0150389844e+05
    2.4149935693e-02    1.0149939844e+05
    2.4170814082e-02    1.0149431250e+05
    2.4191683158e-02    1.0148400781e+05
    2.4212542921e-02    1.0147384375e+05
    2.4233391508e-02    1.0146840625e+05
    2.4254228920e-02    1.0146350000e+05
    2.4275057018e-02    1.0145872656e+05
    2.4295873940e-02    1.0145941406e+05
    2.4316681549e-02    1.0146594531e+05
    2.4337477982e-02    1.0146519531e+05
    2.4358265102e-02    1.0147432031e+05
    2.4379042909e-02    1.0148438281e+05
    2.4399809539e-02    1.0149089844e+05
    2.4420566857e-02    1.0150362500e+05
    2.4441312999e-02    1.0152158594e+05
    2.4462047964e-02    1.0153702344e+05
    2.4482775480e-02    1.0155369531e+05
    2.4503491819e-02    1.0156863281e+05
    2.4524198845e-02    1.0158040625e+05
    2.4544894695e-02    1.0160009375e+05
    2.4565581232e-02    1.0161968750e+05
    2.4586258456e-02    1.0163957031e+05
    2.4606924504e-02    1.0166160156e+05
    2.4627581239e-02    1.0167239844e+05
    2.4648228660e-02    1.0168361719e+05
    2.4668866768e-02    1.0168477344e+05
    2.4689495564e-02    1.0169486719e+05
    2.4710113183e-02    1.0170463281e+05
    2.4730721489e-02    1.0170442969e+05
    2.4751318619e-02    1.0170294531e+05
    2.4771906435e-02    1.0169413281e+05
    2.4792486802e-02    1.0168442969e+05
    2.4813055992e-02    1.0167313281e+05
    2.4833614007e-02    1.0165641406e+05
    2.4854162708e-02    1.0163243750e+05
    2.4874702096e-02    1.0160635156e+05
    2.4895232171e-02    1.0157675000e+05
    2.4915752932e-02    1.0154541406e+05
    2.4936262518e-02    1.0150715625e+05
    2.4956764653e-02    1.0147522656e+05
    2.4977253750e-02    1.0144150000e+05
    2.4997735396e-02    1.0141593750e+05
    2.5018205866e-02    1.0138371094e+05
    2.5038668886e-02    1.0135646094e+05
    2.5059120730e-02    1.0133696094e+05
    2.5079563260e-02    1.0132003906e+05
    2.5099996477e-02    1.0130940625e+05
    2.5120420381e-02    1.0130600000e+05
    2.5140833110e-02    1.0130896094e+05
    2.5161236525e-02    1.0131435156e+05
    2.5181630626e-02    1.0133349219e+05
    2.5202017277e-02    1.0136189844e+05
    2.5222390890e-02    1.0138568750e+05
    2.5242757052e-02    1.0141202344e+05
    2.5263112038e-02    1.0144300781e+05
    2.5283459574e-02    1.0147125000e+05
    2.5303795934e-02    1.0150230469e+05
    2.5324124843e-02    1.0153216406e+05
    2.5344440714e-02    1.0156268750e+05
    2.5364749134e-02    1.0159055469e+05
    2.5385048240e-02    1.0161532031e+05
    2.5405339897e-02    1.0164171094e+05
    2.5425618514e-02    1.0166889844e+05
    2.5445887819e-02    1.0168743750e+05
    2.5466147810e-02    1.0170621875e+05
    2.5486400351e-02    1.0172834375e+05
    2.5506639853e-02    1.0174690625e+05
    2.5526873767e-02    1.0176107031e+05
    2.5547094643e-02    1.0177968750e+05
    2.5567308068e-02    1.0179778125e+05
    2.5587510318e-02    1.0181646875e+05
    2.5607703254e-02    1.0183465625e+05
    2.5627886876e-02    1.0185335156e+05
    2.5648061186e-02    1.0186607031e+05
    2.5668226182e-02    1.0188524219e+05
    2.5688380003e-02    1.0190067969e+05
    2.5708526373e-02    1.0191360156e+05
    2.5728661567e-02    1.0193000000e+05
    2.5748789310e-02    1.0193902344e+05
    2.5768904015e-02    1.0195064844e+05
    2.5789011270e-02    1.0195641406e+05
    2.5809109211e-02    1.0196889844e+05
    2.5829195976e-02    1.0197136719e+05
    2.5849273428e-02    1.0197567969e+05
    2.5869343430e-02    1.0197324219e+05
    2.5889402255e-02    1.0197353906e+05
    2.5909451768e-02    1.0197157031e+05
    2.5929493830e-02    1.0196897656e+05
    2.5949522853e-02    1.0196514844e+05
    2.5969544426e-02    1.0196014844e+05
    2.5989556685e-02    1.0195335156e+05
    2.6009559631e-02    1.0194597656e+05
    2.6029553264e-02    1.0193637500e+05
    2.6049537584e-02    1.0192696875e+05
    2.6069512591e-02    1.0192196094e+05
    2.6089478284e-02    1.0191660156e+05
    2.6109432802e-02    1.0191013281e+05
    2.6129379869e-02    1.0190299219e+05
    2.6149315760e-02    1.0190064844e+05
    2.6169244200e-02    1.0188865625e+05
    2.6189163327e-02    1.0188538281e+05
    2.6209073141e-02    1.0187375000e+05
    2.6228975505e-02    1.0187047656e+05
    2.6248866692e-02    1.0186610156e+05
    2.6268748567e-02    1.0186371875e+05
    2.6288621128e-02    1.0186506250e+05
    2.6308484375e-02    1.0186687500e+05
    2.6328338310e-02    1.0185369531e+05
    2.6348184794e-02    1.0185084375e+05
    2.6368021965e-02    1.0184321094e+05
    2.6387847960e-02    1.0183343750e+05
    2.6407664642e-02    1.0182930469e+05
    2.6427472010e-02    1.0182600000e+05
    2.6447271928e-02    1.0182452344e+05
    2.6467062533e-02    1.0182475781e+05
    2.6486843824e-02    1.0181149219e+05
    2.6506617665e-02    1.0180797656e+05
    2.6526380330e-02    1.0181091406e+05
    2.6546133682e-02    1.0180797656e+05
    2.6565877721e-02    1.0180257031e+05
    2.6585612446e-02    1.0178893750e+05
    2.6605339721e-02    1.0178428906e+05
    2.6625057682e-02    1.0178893750e+05
    2.6644766331e-02    1.0178447656e+05
    2.6664465666e-02    1.0177555469e+05
    2.6684155688e-02    1.0177349219e+05
    2.6703836396e-02    1.0177106250e+05
    2.6723509654e-02    1.0176718750e+05
    2.6743173599e-02    1.0176653125e+05
    2.6762828231e-02    1.0176488281e+05
    2.6782475412e-02    1.0176559375e+05
    2.6802113280e-02    1.0176372656e+05
    2.6821739972e-02    1.0176083594e+05
    2.6841359213e-02    1.0175844531e+05
    2.6860967278e-02    1.0176627344e+05
    2.6880569756e-02    1.0176541406e+05
    2.6900164783e-02    1.0177122656e+05
    2.6919748634e-02    1.0177190625e+05
    2.6939325035e-02    1.0177087500e+05
    2.6958892122e-02    1.0176528125e+05
    2.6978449896e-02    1.0176928906e+05
    2.6997998357e-02    1.0176843750e+05
    2.7017539367e-02    1.0176842969e+05
    2.7037071064e-02    1.0176771094e+05
    2.7056595311e-02    1.0177727344e+05
    2.7076110244e-02    1.0177866406e+05
    2.7095617726e-02    1.0178435156e+05
    2.7115115896e-02    1.0178591406e+05
    2.7134604752e-02    1.0178152344e+05
    2.7154086158e-02    1.0178685156e+05
    2.7173558250e-02    1.0179319531e+05
    2.7193021029e-02    1.0179422656e+05
    2.7212476358e-02    1.0178958594e+05
    2.7231922373e-02    1.0178983594e+05
    2.7251357213e-02    1.0179521094e+05
    2.7270786464e-02    1.0179560156e+05
    2.7290204540e-02    1.0179741406e+05
    2.7309613302e-02    1.0179960156e+05
    2.7329014614e-02    1.0180971094e+05
    2.7348404750e-02    1.0181296094e+05
    2.7367785573e-02    1.0181396875e+05
    2.7387158945e-02    1.0181375000e+05
    2.7406521142e-02    1.0181821094e+05
    2.7425874025e-02    1.0182361719e+05
    2.7445219457e-02    1.0182777344e+05
    2.7464553714e-02    1.0183866406e+05
    2.7483878657e-02    1.0184446094e+05
    2.7503194287e-02    1.0184846875e+05
    2.7522502467e-02    1.0184693750e+05
    2.7541799471e-02    1.0184607031e+05
    2.7561087161e-02    1.0185397656e+05
    2.7580365539e-02    1.0186190625e+05
    2.7599634603e-02    1.0186693750e+05
    2.7618894354e-02    1.0187228906e+05
    2.7638144791e-02    1.0187678125e+05
    2.7657385916e-02    1.0189006250e+05
    2.7676619589e-02    1.0188607031e+05
    2.7695843950e-02    1.0189053125e+05
    2.7715058997e-02    1.0190064844e+05
    2.7734262869e-02    1.0190500000e+05
    2.7753459290e-02    1.0190214844e+05
    2.7772648260e-02    1.0190541406e+05
    2.7791827917e-02    1.0190950000e+05
    2.7810998261e-02    1.0191244531e+05
    2.7830159292e-02    1.0191652344e+05
    2.7849311009e-02    1.0191630469e+05
    2.7868455276e-02    1.0191602344e+05
    2.7887590230e-02    1.0192396094e+05
    2.7906717733e-02    1.0192785156e+05
    2.7925835922e-02    1.0192124219e+05
    2.7944946662e-02    1.0192411719e+05
    2.7964048088e-02    1.0192668750e+05
    2.7983140200e-02    1.0192788281e+05
    2.8002224863e-02    1.0192864844e+05
    2.8021300212e-02    1.0193028125e+05
    2.8040368110e-02    1.0192371094e+05
    2.8059426695e-02    1.0192515625e+05
    2.8078475967e-02    1.0192681250e+05
    2.8097519651e-02    1.0193728125e+05
    2.8116554022e-02    1.0193533594e+05
    2.8135580942e-02    1.0193167969e+05
    2.8154598549e-02    1.0193249219e+05
    2.8173606843e-02    1.0193412500e+05
    2.8192607686e-02    1.0192632031e+05
    2.8211599216e-02    1.0192736719e+05
    2.8230583295e-02    1.0192707031e+05
    2.8249559924e-02    1.0192725000e+05
    2.8268527240e-02    1.0192735156e+05
    2.8287487105e-02    1.0192614844e+05
    2.8306435794e-02    1.0192546094e+05
    2.8325378895e-02    1.0192116406e+05
    2.8344312683e-02    1.0191522656e+05
    2.8363237157e-02    1.0191431250e+05
    2.8382156044e-02    1.0191271094e+05
    2.8401065618e-02    1.0191038281e+05
    2.8419965878e-02    1.0190914844e+05
    2.8438858688e-02    1.0190853906e+05
    2.8457742184e-02    1.0190680469e+05
    2.8476616368e-02    1.0190503125e+05
    2.8495483100e-02    1.0190428906e+05
    2.8514338657e-02    1.0190168750e+05
    2.8533160686e-02    1.0189366406e+05
    2.8551930562e-02    1.0188610156e+05
    2.8570635244e-02    1.0188246094e+05
    2.8589271009e-02    1.0187881250e+05
    2.8607837856e-02    1.0188100781e+05
    2.8626350686e-02    1.0188368750e+05
    2.8644818813e-02    1.0188117969e+05
    2.8663259000e-02    1.0187403125e+05
    2.8681686148e-02    1.0187175781e+05
    2.8700113297e-02    1.0186535156e+05
    2.8718546033e-02    1.0187236719e+05
    2.8736986220e-02    1.0187059375e+05
    2.8755431995e-02    1.0186962500e+05
    2.8773877770e-02    1.0186816406e+05
    2.8792314231e-02    1.0186961719e+05
    2.8810730204e-02    1.0186664844e+05
    2.8829116374e-02    1.0187113281e+05
    2.8847465292e-02    1.0187099219e+05
    2.8865773231e-02    1.0187727344e+05
    2.8884036466e-02    1.0187956250e+05
    2.8902258724e-02    1.0189043750e+05
    2.8920443729e-02    1.0189257031e+05
    2.8938598931e-02    1.0189489844e+05
    2.8956729919e-02    1.0189778906e+05
    2.8974846005e-02    1.0189947656e+05
    2.8992949054e-02    1.0190228906e+05
    2.9011042789e-02    1.0190464844e+05
    2.9029129073e-02    1.0190775781e+05
    2.9047204182e-02    1.0191580469e+05
    2.9065268114e-02    1.0192380469e+05
    2.9083315283e-02    1.0192710156e+05
    2.9101338238e-02    1.0192516406e+05
    2.9119335115e-02    1.0192714844e+05
    2.9137304053e-02    1.0193302344e+05
    2.9155241325e-02    1.0193618750e+05
    2.9173148796e-02    1.0193808594e+05
    2.9191024601e-02    1.0193125000e+05
    2.9208874330e-02    1.0193291406e+05
    2.9226697981e-02    1.0194225000e+05
    2.9244501144e-02    1.0194583594e+05
    2.9262285680e-02    1.0194893750e+05
    2.9280053452e-02    1.0194866406e+05
    2.9297806323e-02    1.0194833594e+05
    2.9315544292e-02    1.0195071875e+05
    2.9333265498e-02    1.0195371094e+05
    2.9350971803e-02    1.0195362500e+05
    2.9368655756e-02    1.0196006250e+05
    2.9386319220e-02    1.0195538281e+05
    2.9403960332e-02    1.0196225781e+05
    2.9421577230e-02    1.0196333594e+05
    2.9439168051e-02    1.0196668750e+05
    2.9456734657e-02    1.0196603906e+05
    2.9474277049e-02    1.0197284375e+05
    2.9491795227e-02    1.0197341406e+05
    2.9509292915e-02    1.0197047656e+05
    2.9526771978e-02    1.0197808594e+05
    2.9544232413e-02    1.0197862500e+05
    2.9561674222e-02    1.0197858594e+05
    2.9579099268e-02    1.0198149219e+05
    2.9596509412e-02    1.0198334375e+05
    2.9613900930e-02    1.0199335156e+05
    2.9631273821e-02    1.0199068750e+05
    2.9648626223e-02    1.0199127344e+05
    2.9665958136e-02    1.0199358594e+05
    2.9683271423e-02    1.0199633594e+05
    2.9700560495e-02    1.0199782031e+05
    2.9717829078e-02    1.0199918750e+05
    2.9735075310e-02    1.0200046875e+05
    2.9752301052e-02    1.0200285156e+05
    2.9769508168e-02    1.0200408594e+05
    2.9786696658e-02    1.0200586719e+05
    2.9803866521e-02    1.0200653906e+05
    2.9821017757e-02    1.0200693750e+05
    2.9838152230e-02    1.0201049219e+05
    2.9855269939e-02    1.0200535156e+05
    2.9872370884e-02    1.0200409375e+05
    2.9889453202e-02    1.0201277344e+05
    2.9906518757e-02    1.0201403906e+05
    2.9923565686e-02    1.0200896094e+05
    2.9940593988e-02    1.0200853906e+05
    2.9957601801e-02    1.0201896094e+05
    2.9974590987e-02    1.0201428906e+05
    2.9991561547e-02    1.0201152344e+05
    3.0008511618e-02    1.0201194531e+05
    3.0025444925e-02    1.0201288281e+05
    3.0042361468e-02    1.0201378906e+05
    3.0059259385e-02    1.0201483594e+05
    3.0076142401e-02    1.0201616406e+05
    3.0093006790e-02    1.0202438281e+05
    3.0109854415e-02    1.0201938281e+05
    3.0126683414e-02    1.0201977344e+05
    3.0143497512e-02    1.0202059375e+05
    3.0160292983e-02    1.0202194531e+05
    3.0177071691e-02    1.0202212500e+05
    3.0193833634e-02    1.0202355469e+05
    3.0210576952e-02    1.0202512500e+05
    3.0227303505e-02    1.0202618750e+05
    3.0244011432e-02    1.0202853906e+05
    3.0260702595e-02    1.0202858594e+05
    3.0277376994e-02    1.0202982031e+05
    3.0294034630e-02    1.0203514844e+05
    3.0310675502e-02    1.0203808594e+05
    3.0327299610e-02    1.0203935156e+05
    3.0343905091e-02    1.0203433594e+05
    3.0360495672e-02    1.0203616406e+05
    3.0377071351e-02    1.0203752344e+05
    3.0393628404e-02    1.0204359375e+05
    3.0410168692e-02    1.0204641406e+05
    3.0426690355e-02    1.0204022656e+05
    3.0443195254e-02    1.0204136719e+05
    3.0459685251e-02    1.0204253906e+05
    3.0476156622e-02    1.0205353906e+05
    3.0492611229e-02    1.0204625000e+05
    3.0509050936e-02    1.0204740625e+05
    3.0525473878e-02    1.0204846875e+05
    3.0541881919e-02    1.0204943750e+05
    3.0558273196e-02    1.0204978125e+05
    3.0574647710e-02    1.0204996094e+05
    3.0591005459e-02    1.0205161719e+05
    3.0607348308e-02    1.0204285156e+05
    3.0623674393e-02    1.0204296875e+05
    3.0639985576e-02    1.0204414844e+05
    3.0656279996e-02    1.0204284375e+05
    3.0672557652e-02    1.0204165625e+05
    3.0688818544e-02    1.0203140625e+05
    3.0705062672e-02    1.0202981250e+05
    3.0721291900e-02    1.0201810156e+05
    3.0737506226e-02    1.0201593750e+05
    3.0753703788e-02    1.0201374219e+05
    3.0769886449e-02    1.0201221875e+05
    3.0786054209e-02    1.0201075000e+05
    3.0802207068e-02    1.0200803125e+05
    3.0818343163e-02    1.0200571094e+05
    3.0834466219e-02    1.0199331250e+05
    3.0850572512e-02    1.0199012500e+05
    3.0866663903e-02    1.0198261719e+05
    3.0882738531e-02    1.0197393750e+05
    3.0898798257e-02    1.0196930469e+05
    3.0914843082e-02    1.0196546094e+05
    3.0930871144e-02    1.0196671875e+05
    3.0946886167e-02    1.0196814844e+05
    3.0962884426e-02    1.0196546094e+05
    3.0978867784e-02    1.0196892969e+05
    3.0994836241e-02    1.0197011719e+05
    3.1010789797e-02    1.0196824219e+05
    3.1026728451e-02    1.0196665625e+05
    3.1042650342e-02    1.0197346875e+05
    3.1058559194e-02    1.0197803906e+05
    3.1074455008e-02    1.0198174219e+05
    3.1090334058e-02    1.0198619531e+05
    3.1106200069e-02    1.0199200781e+05
    3.1122051179e-02    1.0199788281e+05
    3.1137887388e-02    1.0200334375e+05
    3.1153710559e-02    1.0200574219e+05
    3.1169516966e-02    1.0200789844e+05
    3.1185310334e-02    1.0201846094e+05
    3.1201090664e-02    1.0202250000e+05
    3.1216854230e-02    1.0202994531e+05
    3.1232602894e-02    1.0203881250e+05
    3.1248336658e-02    1.0204285156e+05
    3.1264055520e-02    1.0204817969e+05
    3.1279761344e-02    1.0205121094e+05
    3.1295452267e-02    1.0205535156e+05
    3.1311132014e-02    1.0206055469e+05
    3.1326796860e-02    1.0206335156e+05
    3.1342446804e-02    1.0206777344e+05
    3.1358085573e-02    1.0206153125e+05
    3.1373709440e-02    1.0206477344e+05
    3.1389318407e-02    1.0206727344e+05
    3.1404916197e-02    1.0207094531e+05
    3.1420499086e-02    1.0207286719e+05
    3.1436067075e-02    1.0207590625e+05
    3.1451620162e-02    1.0207999219e+05
    3.1467158347e-02    1.0208172656e+05
    3.1482685357e-02    1.0208450000e+05
    3.1498193741e-02    1.0208639844e+05
    3.1513694674e-02    1.0207993750e+05
    3.1529176980e-02    1.0208059375e+05
    3.1544648111e-02    1.0208334375e+05
    3.1560108066e-02    1.0208496094e+05
    3.1575553119e-02    1.0208635156e+05
    3.1590986997e-02    1.0207789844e+05
    3.1606405973e-02    1.0207972656e+05
    3.1621813774e-02    1.0208106250e+05
    3.1637206674e-02    1.0208297656e+05
    3.1652588397e-02    1.0208850000e+05
    3.1667951494e-02    1.0208990625e+05
    3.1683307141e-02    1.0208703125e+05
    3.1698647887e-02    1.0208865625e+05
    3.1713977456e-02    1.0208941406e+05
    3.1729292125e-02    1.0208627344e+05
    3.1744595617e-02    1.0208068750e+05
    3.1759884208e-02    1.0208156250e+05
    3.1775161624e-02    1.0207521094e+05
    3.1790427864e-02    1.0207117969e+05
    3.1805675477e-02    1.0207041406e+05
    3.1820915639e-02    1.0207027344e+05
    3.1836140901e-02    1.0207010156e+05
    3.1851354986e-02    1.0206822656e+05
    3.1866557896e-02    1.0206790625e+05
    3.1881745905e-02    1.0206268750e+05
    3.1896922737e-02    1.0205746094e+05
    3.1912088394e-02    1.0205603906e+05
    3.1927239150e-02    1.0205521094e+05
    3.1942378730e-02    1.0205396094e+05
    3.1957507133e-02    1.0206269531e+05
    3.1972620636e-02    1.0206134375e+05
    3.1987726688e-02    1.0206066406e+05
    3.2002814114e-02    1.0206049219e+05
    3.2017890364e-02    1.0206008594e+05
    3.2032959163e-02    1.0204861719e+05
    3.2048013061e-02    1.0204727344e+05
    3.2063052058e-02    1.0204586719e+05
    3.2078083605e-02    1.0204458594e+05
    3.2093103975e-02    1.0204687500e+05
    3.2108109444e-02    1.0204518750e+05
    3.2123107463e-02    1.0204118750e+05
    3.2138090581e-02    1.0204303906e+05
    3.2153062522e-02    1.0204911719e+05
    3.2168023288e-02    1.0204774219e+05
    3.2182972878e-02    1.0204461719e+05
    3.2197911292e-02    1.0204014844e+05
    3.2212834805e-02    1.0203447656e+05
    3.2227750868e-02    1.0203453906e+05
    3.2242652029e-02    1.0204271875e+05
    3.2257542014e-02    1.0204178125e+05
    3.2272424549e-02    1.0204094531e+05
    3.2287292182e-02    1.0204005469e+05
    3.2302148640e-02    1.0203864844e+05
    3.2316997647e-02    1.0203786719e+05
    3.2331831753e-02    1.0203774219e+05
    3.2346658409e-02    1.0203609375e+05
    3.2361470163e-02    1.0203575781e+05
    3.2376270741e-02    1.0204021094e+05
    3.2391063869e-02    1.0204397656e+05
    3.2405842096e-02    1.0203910156e+05
    3.2420612872e-02    1.0203444531e+05
    3.2435368747e-02    1.0203414844e+05
    3.2450113446e-02    1.0203442969e+05
    3.2464850694e-02    1.0203416406e+05
    3.2479573041e-02    1.0203816406e+05
    3.2494287938e-02    1.0204322656e+05
    3.2508991659e-02    1.0204334375e+05
    3.2523684204e-02    1.0204344531e+05
    3.2538365573e-02    1.0204355469e+05
    3.2553035766e-02    1.0204130469e+05
    3.2567698509e-02    1.0204385156e+05
    3.2582346350e-02    1.0204291406e+05
    3.2596986741e-02    1.0204321094e+05
    3.2611619681e-02    1.0204355469e+05
    3.2626237720e-02    1.0204464844e+05
    3.2640848309e-02    1.0204477344e+05
    3.2655447721e-02    1.0205033594e+05
    3.2670035958e-02    1.0205577344e+05
    3.2684613019e-02    1.0205260156e+05
    3.2699178904e-02    1.0205416406e+05
    3.2713737339e-02    1.0205460156e+05
    3.2728284597e-02    1.0205753906e+05
    3.2742820680e-02    1.0205450000e+05
    3.2757349312e-02    1.0205302344e+05
    3.2771866769e-02    1.0205435156e+05
    3.2786373049e-02    1.0205514844e+05
    3.2800871879e-02    1.0205597656e+05
    3.2815355808e-02    1.0205797656e+05
    3.2829832286e-02    1.0205772656e+05
    3.2844301313e-02    1.0205860156e+05
    3.2858755440e-02    1.0205827344e+05
    3.2873202115e-02    1.0205893750e+05
    3.2887637615e-02    1.0205940625e+05
    3.2902065665e-02    1.0206025781e+05
    3.2916482538e-02    1.0205983594e+05
    3.2930891961e-02    1.0205053906e+05
    3.2945290208e-02    1.0205143750e+05
    3.2959677279e-02    1.0205061719e+05
    3.2974056900e-02    1.0205041406e+05
    3.2988425344e-02    1.0204971875e+05
    3.3002786338e-02    1.0204971094e+05
    3.3017136157e-02    1.0205441406e+05
    3.3031478524e-02    1.0204958594e+05
    3.3045809716e-02    1.0204865625e+05
    3.3060129732e-02    1.0204797656e+05
    3.3074442297e-02    1.0204306250e+05
    3.3088747412e-02    1.0203885156e+05
    3.3103041351e-02    1.0203440625e+05
    3.3117324114e-02    1.0203339844e+05
    3.3131599426e-02    1.0203235156e+05
    3.3145863563e-02    1.0203075781e+05
    3.3160120249e-02    1.0202921094e+05
    3.3174365759e-02    1.0202703906e+05
    3.3188603818e-02    1.0202491406e+05
    3.3202830702e-02    1.0202325000e+05
    3.3217050135e-02    1.0202147656e+05
    3.3231258392e-02    1.0201963281e+05
    3.3245459199e-02    1.0201190625e+05
    3.3259648830e-02    1.0200621094e+05
    3.3273831010e-02    1.0200339844e+05
    3.3288005739e-02    1.0200114844e+05
    3.3302169293e-02    1.0200402344e+05
    3.3316325396e-02    1.0200434375e+05
    3.3330474049e-02    1.0200591406e+05
    3.3344611526e-02    1.0200292969e+05
    3.3358741552e-02    1.0200225781e+05
    3.3372864127e-02    1.0200044531e+05
    3.3386975527e-02    1.0199391406e+05
    3.3401079476e-02    1.0199210156e+05
    3.3415172249e-02    1.0199512500e+05
    3.3429257572e-02    1.0199375000e+05
    3.3443335444e-02    1.0199253906e+05
    3.3457405865e-02    1.0199214844e+05
    3.3471468836e-02    1.0199578125e+05
    3.3485524356e-02    1.0199439844e+05
    3.3499568701e-02    1.0199705469e+05
    3.3513605595e-02    1.0199621094e+05
    3.3527631313e-02    1.0199365625e+05
    3.3541653305e-02    1.0198767969e+05
    3.3555664122e-02    1.0198971094e+05
    3.3569667488e-02    1.0199731250e+05
    3.3583663404e-02    1.0199766406e+05
    3.3597648144e-02    1.0199762500e+05
    3.3611625433e-02    1.0199660156e+05
    3.3625595272e-02    1.0199910156e+05
    3.3639557660e-02    1.0200243750e+05
    3.3653512597e-02    1.0200306250e+05
    3.3667460084e-02    1.0200089844e+05
    3.3681396395e-02    1.0200035156e+05
    3.3695328981e-02    1.0200085156e+05
    3.3709254116e-02    1.0200019531e+05
    3.3723168075e-02    1.0200185156e+05
    3.3737078309e-02    1.0200235156e+05
    3.3750977367e-02    1.0200278906e+05
    3.3764872700e-02    1.0200311719e+05
    3.3778760582e-02    1.0200225781e+05
    3.3792637289e-02    1.0200293750e+05
    3.3806510270e-02    1.0200333594e+05
    3.3820372075e-02    1.0199996875e+05
    3.3834230155e-02    1.0199189844e+05
    3.3848077059e-02    1.0199103906e+05
    3.3861916512e-02    1.0199078125e+05
    3.3875752240e-02    1.0199061719e+05
    3.3889576793e-02    1.0198877344e+05
    3.3903393894e-02    1.0198802344e+05
    3.3917203546e-02    1.0198603906e+05
    3.3931009471e-02    1.0198621094e+05
    3.3944804221e-02    1.0198400781e+05
    3.3958595246e-02    1.0198340625e+05
    3.3972378820e-02    1.0197709375e+05
    3.3986151218e-02    1.0197571094e+05
    3.3999919891e-02    1.0197425000e+05
    3.4013681114e-02    1.0197310156e+05
    3.4027434886e-02    1.0197097656e+05
    3.4041177481e-02    1.0196483594e+05
    3.4054916352e-02    1.0196316406e+05
    3.4068647772e-02    1.0196152344e+05
    3.4082375467e-02    1.0196227344e+05
    3.4096091986e-02    1.0196199219e+05
    3.4109804779e-02    1.0196055469e+05
    3.4123510122e-02    1.0195964844e+05
    3.4137208015e-02    1.0195753906e+05
    3.4150898457e-02    1.0195236719e+05
    3.4164581448e-02    1.0194941406e+05
    3.4178260714e-02    1.0194864844e+05
    3.4191932529e-02    1.0194664844e+05
    3.4205596894e-02    1.0194341406e+05
    3.4219253808e-02    1.0194124219e+05
    3.4232903272e-02    1.0193846094e+05
    3.4246545285e-02    1.0193610156e+05
    3.4260183573e-02    1.0193197656e+05
    3.4273810685e-02    1.0192949219e+05
    3.4287434071e-02    1.0192688281e+05
    3.4301050007e-02    1.0192083594e+05
    3.4314658493e-02    1.0191812500e+05
    3.4328263253e-02    1.0191553906e+05
    3.4341860563e-02    1.0191749219e+05
    3.4355450422e-02    1.0191446875e+05
    3.4369036555e-02    1.0191207031e+05
    3.4382611513e-02    1.0190927344e+05
    3.4396182746e-02    1.0190772656e+05
    3.4409742802e-02    1.0190628906e+05
    3.4423299134e-02    1.0190444531e+05
    3.4436848015e-02    1.0190265625e+05
    3.4450393170e-02    1.0190206250e+05
    3.4463927150e-02    1.0190046094e+05
    3.4477461129e-02    1.0190010156e+05
    3.4490987659e-02    1.0189862500e+05
    3.4504506737e-02    1.0189771094e+05
    3.4518022090e-02    1.0189658594e+05
    3.4531529993e-02    1.0189372656e+05
    3.4545030445e-02    1.0189311719e+05
    3.4558523446e-02    1.0189078125e+05
    3.4572008997e-02    1.0188960156e+05
    3.4585487098e-02    1.0188833594e+05
    3.4598957747e-02    1.0188710156e+05
    3.4612424672e-02    1.0188549219e+05
    3.4625884145e-02    1.0188452344e+05
    3.4639336169e-02    1.0188313281e+05
    3.4652780741e-02    1.0188146094e+05
    3.4666225314e-02    1.0188514844e+05
    3.4679658711e-02    1.0188956250e+05
    3.4693088382e-02    1.0188881250e+05
    3.4706510603e-02    1.0188064844e+05
    3.4719929099e-02    1.0187734375e+05
    3.4733340144e-02    1.0187631250e+05
    3.4746743739e-02    1.0187522656e+05
    3.4760143608e-02    1.0187421094e+05
    3.4773536026e-02    1.0187435156e+05
    3.4786924720e-02    1.0187340625e+05
    3.4800305963e-02    1.0187253906e+05
    3.4813679755e-02    1.0187177344e+05
    3.4827046096e-02    1.0187087500e+05
    3.4840408713e-02    1.0186996875e+05
    3.4853763878e-02    1.0186891406e+05
    3.4867111593e-02    1.0186777344e+05
    3.4880455583e-02    1.0186471094e+05
    3.4893795848e-02    1.0186260156e+05
    3.4907124937e-02    1.0185755469e+05
    3.4920454025e-02    1.0185503125e+05
    3.4933775663e-02    1.0184772656e+05
    3.4947093576e-02    1.0184441406e+05
    3.4960404038e-02    1.0184334375e+05
    3.4973710775e-02    1.0184285156e+05
    3.4987010062e-02    1.0184236719e+05
endcurve
