Curveplot
LS-DYNA keyword deck by LS-PrePost                          
Time
Pressure
Defined Connection
Pressure @ 75 #pts=1745
* Minval=     9.9531375000e+04 at time=         0.0168438740
* Maxval=     1.6707109375e+05 at time=         0.0073892642
    0.0000000000e+00    9.9999093750e+04
    3.3812357287e-05    9.9999093750e+04
    6.1326652940e-05    9.9998093750e+04
    8.9102875791e-05    9.9998125000e+04
    1.1682785407e-04    9.9999335938e+04
    1.4461828687e-04    9.9998398438e+04
    1.7236733402e-04    9.9999968750e+04
    2.0016246708e-04    1.0000847656e+05
    2.2795486439e-04    1.0000096875e+05
    2.5574557367e-04    1.0000097656e+05
    2.8353667585e-04    9.9999523438e+04
    3.1133697485e-04    9.9990093750e+04
    3.3912662184e-04    9.9999132812e+04
    3.6691734567e-04    1.0000053906e+05
    3.9470891352e-04    1.0000108594e+05
    4.2249175021e-04    1.0000160156e+05
    4.5027161832e-04    1.0000666406e+05
    4.7804549104e-04    1.0000150000e+05
    5.0581363030e-04    1.0000164844e+05
    5.3357944125e-04    1.0000266406e+05
    5.6134146871e-04    9.9995523438e+04
    5.8909942163e-04    9.9991273438e+04
    6.1685312539e-04    9.9998335938e+04
    6.4460188150e-04    1.0000186719e+05
    6.7234638846e-04    1.0000160156e+05
    7.0008635521e-04    1.0000309375e+05
    7.2782178177e-04    1.0000327344e+05
    7.5555208605e-04    1.0000321875e+05
    7.8327720985e-04    1.0000075000e+05
    8.1099680392e-04    9.9993648438e+04
    8.3871174138e-04    9.9998835938e+04
    8.6642213864e-04    1.0000189844e+05
    8.9412782108e-04    1.0000180469e+05
    9.2182843946e-04    1.0000196094e+05
    9.4952445943e-04    1.0000146875e+05
    9.7721535712e-04    9.9996148438e+04
    1.0049008997e-03    9.9996007812e+04
    1.0325826006e-03    1.0000191406e+05
    1.0602590628e-03    1.0000477344e+05
    1.0879321489e-03    1.0000203906e+05
    1.1155996472e-03    1.0000105469e+05
    1.1432634201e-03    9.9992382812e+04
    1.1709230021e-03    9.9997312500e+04
    1.1985785095e-03    1.0000175000e+05
    1.2262313394e-03    1.0000208594e+05
    1.2538790470e-03    1.0000496094e+05
    1.2815232622e-03    1.0000332031e+05
    1.3091630535e-03    1.0000296094e+05
    1.3368004002e-03    1.0000247656e+05
    1.3644339051e-03    1.0000821094e+05
    1.3920635683e-03    1.0002508594e+05
    1.4196902048e-03    1.0005456250e+05
    1.4473132323e-03    1.0010519531e+05
    1.4749332331e-03    1.0018924219e+05
    1.5025498578e-03    1.0032597656e+05
    1.5301633393e-03    1.0051447656e+05
    1.5577742597e-03    1.0077264844e+05
    1.5853822697e-03    1.0109850000e+05
    1.6129877185e-03    1.0147041406e+05
    1.6405890929e-03    1.0186796094e+05
    1.6681876732e-03    1.0225036719e+05
    1.6957829939e-03    1.0260153906e+05
    1.7233766848e-03    1.0286358594e+05
    1.7509678146e-03    1.0305040625e+05
    1.7785291420e-03    1.0313894531e+05
    1.8060547300e-03    1.0314214844e+05
    1.8335470231e-03    1.0305569531e+05
    1.8610082334e-03    1.0291366406e+05
    1.8884401070e-03    1.0274925781e+05
    1.9158447394e-03    1.0257971875e+05
    1.9432241097e-03    1.0241406250e+05
    1.9705800805e-03    1.0229297656e+05
    1.9979148638e-03    1.0222209375e+05
    2.0252298564e-03    1.0219430469e+05
    2.0525271539e-03    1.0221256250e+05
    2.0798076876e-03    1.0227149219e+05
    2.1070730872e-03    1.0234730469e+05
    2.1343247499e-03    1.0241990625e+05
    2.1615643054e-03    1.0247881250e+05
    2.1887931507e-03    1.0252134375e+05
    2.2160108201e-03    1.0254321875e+05
    2.2432196420e-03    1.0253863281e+05
    2.2704207804e-03    1.0251783594e+05
    2.2976147011e-03    1.0248452344e+05
    2.3248014040e-03    1.0244878125e+05
    2.3519827519e-03    1.0241391406e+05
    2.3791582789e-03    1.0239124219e+05
    2.4063293822e-03    1.0238417969e+05
    2.4334960617e-03    1.0238741406e+05
    2.4606597144e-03    1.0239202344e+05
    2.4878205732e-03    1.0240847656e+05
    2.5149781723e-03    1.0243189844e+05
    2.5421329774e-03    1.0244227344e+05
    2.5692859199e-03    1.0244833594e+05
    2.5964374654e-03    1.0244577344e+05
    2.6235871483e-03    1.0244294531e+05
    2.6507352013e-03    1.0243489844e+05
    2.6778825559e-03    1.0243369531e+05
    2.7050296776e-03    1.0242147656e+05
    2.7321761008e-03    1.0241072656e+05
    2.7593218256e-03    1.0241053906e+05
    2.7864677832e-03    1.0242053906e+05
    2.8136142064e-03    1.0243275781e+05
    2.8407603968e-03    1.0243724219e+05
    2.8679079842e-03    1.0244134375e+05
    2.8950548731e-03    1.0245440625e+05
    2.9222022276e-03    1.0248777344e+05
    2.9493502807e-03    1.0252908594e+05
    2.9764990322e-03    1.0257646094e+05
    3.0036487151e-03    1.0263719531e+05
    3.0307997949e-03    1.0271585156e+05
    3.0579508748e-03    1.0281358594e+05
    3.0851035845e-03    1.0291552344e+05
    3.1122572254e-03    1.0302732031e+05
    3.1394117977e-03    1.0311928906e+05
    3.1665677670e-03    1.0320593750e+05
    3.1937246677e-03    1.0326397656e+05
    3.2208829653e-03    1.0330150781e+05
    3.2480424270e-03    1.0330847656e+05
    3.2752046827e-03    1.0328859375e+05
    3.2952371985e-03    1.0325628906e+05
    3.3145032357e-03    1.0322240625e+05
    3.3336398192e-03    1.0318546094e+05
    3.3528339118e-03    1.0314796094e+05
    3.3720366191e-03    1.0309981250e+05
    3.3912549261e-03    1.0305760156e+05
    3.4104890656e-03    1.0301635156e+05
    3.4297339153e-03    1.0297633594e+05
    3.4486323129e-03    1.0293228125e+05
    3.4671388566e-03    1.0288905469e+05
    3.4854323603e-03    1.0283152344e+05
    3.5036695190e-03    1.0277100781e+05
    3.5219141282e-03    1.0270728906e+05
    3.5401545465e-03    1.0263108594e+05
    3.5583588760e-03    1.0255896875e+05
    3.5765271168e-03    1.0248619531e+05
    3.5946895368e-03    1.0242744531e+05
    3.6139658187e-03    1.0237189844e+05
    3.6330535077e-03    1.0232502344e+05
    3.6521453876e-03    1.0228314844e+05
    3.6699753255e-03    1.0225327344e+05
    3.6875614896e-03    1.0223158594e+05
    3.7050142419e-03    1.0221237500e+05
    3.7224807311e-03    1.0219443750e+05
    3.7400643341e-03    1.0217974219e+05
    3.7577797193e-03    1.0216942969e+05
    3.7755726371e-03    1.0215405469e+05
    3.7933769636e-03    1.0214389844e+05
    3.8111612666e-03    1.0213878125e+05
    3.8289318327e-03    1.0212840625e+05
    3.8467168342e-03    1.0212413281e+05
    3.8645383902e-03    1.0212035156e+05
    3.8824023213e-03    1.0211672656e+05
    3.9002960548e-03    1.0210691406e+05
    3.9182156324e-03    1.0209274219e+05
    3.9361710660e-03    1.0207603906e+05
    3.9541716687e-03    1.0204964844e+05
    3.9733103476e-03    1.0203185156e+05
    3.9924201556e-03    1.0201368750e+05
    4.0104058571e-03    1.0199491406e+05
    4.0284004062e-03    1.0198771094e+05
    4.0464363992e-03    1.0198292969e+05
    4.0656095371e-03    1.0197814844e+05
    4.0847789496e-03    1.0196508594e+05
    4.1039343923e-03    1.0196064844e+05
    4.1219722480e-03    1.0195610156e+05
    4.1400394402e-03    1.0194744531e+05
    4.1591953486e-03    1.0194071094e+05
    4.1784178466e-03    1.0193416406e+05
    4.1976389475e-03    1.0192749219e+05
    4.2168586515e-03    1.0192217969e+05
    4.2360713705e-03    1.0191102344e+05
    4.2552771047e-03    1.0189971094e+05
    4.2744791135e-03    1.0188847656e+05
    4.2936825193e-03    1.0187197656e+05
    4.3128933758e-03    1.0185599219e+05
    4.3321144767e-03    1.0184946875e+05
    4.3513495475e-03    1.0183739844e+05
    4.3705995195e-03    1.0182066406e+05
    4.3898657896e-03    1.0180552344e+05
    4.4091497548e-03    1.0178449219e+05
    4.4284537435e-03    1.0175602344e+05
    4.4477786869e-03    1.0171921875e+05
    4.4671236537e-03    1.0166975000e+05
    4.4864914380e-03    1.0161956250e+05
    4.5058806427e-03    1.0155728125e+05
    4.5252908021e-03    1.0149583594e+05
    4.5447219163e-03    1.0140856250e+05
    4.5641721226e-03    1.0131772656e+05
    4.5836409554e-03    1.0121443750e+05
    4.6031279489e-03    1.0110375781e+05
    4.6226321720e-03    1.0098694531e+05
    4.6421540901e-03    1.0086457031e+05
    4.6616927721e-03    1.0073622656e+05
    4.6812482178e-03    1.0061888281e+05
    4.7008208930e-03    1.0050353906e+05
    4.7204112634e-03    1.0039616406e+05
    4.7400193289e-03    1.0030133594e+05
    4.7596455552e-03    1.0022917969e+05
    4.7792894766e-03    1.0017950000e+05
    4.7989510931e-03    1.0014688281e+05
    4.8186304048e-03    1.0014221094e+05
    4.8383255489e-03    1.0015228906e+05
    4.8580355942e-03    1.0018617969e+05
    4.8777610064e-03    1.0023230469e+05
    4.8975008540e-03    1.0028647656e+05
    4.9172551371e-03    1.0034580469e+05
    4.9370229244e-03    1.0041503906e+05
    4.9568060786e-03    1.0047647656e+05
    4.9766036682e-03    1.0053591406e+05
    4.9964170903e-03    1.0058433594e+05
    5.0162458792e-03    1.0061925000e+05
    5.0360900350e-03    1.0064206250e+05
    5.0559476949e-03    1.0066297656e+05
    5.0758207217e-03    1.0066991406e+05
    5.0957072526e-03    1.0067439844e+05
    5.1156077534e-03    1.0067612500e+05
    5.1355226897e-03    1.0066878125e+05
    5.1554525271e-03    1.0065403906e+05
    5.1753963344e-03    1.0063194531e+05
    5.1953555085e-03    1.0061571094e+05
    5.2153295837e-03    1.0059859375e+05
    5.2353194915e-03    1.0058137500e+05
    5.2553247660e-03    1.0057587500e+05
    5.2753463387e-03    1.0057246094e+05
    5.2953832783e-03    1.0057581250e+05
    5.3154369816e-03    1.0057897656e+05
    5.3355065174e-03    1.0058421875e+05
    5.3555918857e-03    1.0058877344e+05
    5.3756926209e-03    1.0059856250e+05
    5.3958082572e-03    1.0060939844e+05
    5.4159392603e-03    1.0062562500e+05
    5.4360851645e-03    1.0064227344e+05
    5.4562464356e-03    1.0065410156e+05
    5.4764230736e-03    1.0066049219e+05
    5.4966160096e-03    1.0066431250e+05
    5.5168238468e-03    1.0066335156e+05
    5.5370470509e-03    1.0066257031e+05
    5.5572865531e-03    1.0066705469e+05
    5.5775423534e-03    1.0067608594e+05
    5.5978130549e-03    1.0067842969e+05
    5.6181000546e-03    1.0067964844e+05
    5.6384028867e-03    1.0067259375e+05
    5.6587206200e-03    1.0067428906e+05
    5.6790532544e-03    1.0066733594e+05
    5.6994007900e-03    1.0066953906e+05
    5.7197632268e-03    1.0067852344e+05
    5.7401410304e-03    1.0068366406e+05
    5.7605337352e-03    1.0068719531e+05
    5.7809422724e-03    1.0069072656e+05
    5.8013652451e-03    1.0070346875e+05
    5.8218040504e-03    1.0069922656e+05
    5.8422577567e-03    1.0070631250e+05
    5.8627268299e-03    1.0071628125e+05
    5.8832112700e-03    1.0071593750e+05
    5.9037101455e-03    1.0072228125e+05
    5.9242248535e-03    1.0072733594e+05
    5.9447535314e-03    1.0072831250e+05
    5.9641525149e-03    1.0073607031e+05
    5.9830932878e-03    1.0074000000e+05
    6.0020405799e-03    1.0074422656e+05
    6.0210367665e-03    1.0074871094e+05
    6.0400799848e-03    1.0075810156e+05
    6.0591096990e-03    1.0076946875e+05
    6.0781282373e-03    1.0077302344e+05
    6.0972142965e-03    1.0077828125e+05
    6.1162756756e-03    1.0078467969e+05
    6.1353649944e-03    1.0079689844e+05
    6.1544459313e-03    1.0080361719e+05
    6.1734300107e-03    1.0080814844e+05
    6.1924448237e-03    1.0081359375e+05
    6.2115197070e-03    1.0081956250e+05
    6.2306127511e-03    1.0082802344e+05
    6.2497169711e-03    1.0084208594e+05
    6.2688281760e-03    1.0084882031e+05
    6.2879407778e-03    1.0086403125e+05
    6.3070552424e-03    1.0088221094e+05
    6.3261794858e-03    1.0089546875e+05
    6.3453060575e-03    1.0090925781e+05
    6.3644465990e-03    1.0092715625e+05
    6.3835908659e-03    1.0094480469e+05
    6.4027444459e-03    1.0096009375e+05
    6.4219115302e-03    1.0098490625e+05
    6.4410855994e-03    1.0100422656e+05
    6.4602680504e-03    1.0102669531e+05
    6.4794607460e-03    1.0103588281e+05
    6.4986641519e-03    1.0104532031e+05
    6.5178787336e-03    1.0104838281e+05
    6.5371058881e-03    1.0105978906e+05
    6.5563363023e-03    1.0106083594e+05
    6.5755699761e-03    1.0106124219e+05
    6.5948092379e-03    1.0107083594e+05
    6.6140629351e-03    1.0107068750e+05
    6.6333152354e-03    1.0107699219e+05
    6.6525745206e-03    1.0107658594e+05
    6.6718445159e-03    1.0106884375e+05
    6.6911154427e-03    1.0106803125e+05
    6.7104012705e-03    1.0106522656e+05
    6.7296870984e-03    1.0106581250e+05
    6.7489854991e-03    1.0106261719e+05
    6.7682852969e-03    1.0106503906e+05
    6.7875892855e-03    1.0106752344e+05
    6.8069072440e-03    1.0107040625e+05
    6.8262196146e-03    1.0107305469e+05
    6.8455408327e-03    1.0106591406e+05
    6.8648783490e-03    1.0106035156e+05
    6.8842126057e-03    1.0106059375e+05
    6.9035501219e-03    1.0106072656e+05
    6.9228983484e-03    1.0106128906e+05
    6.9422605447e-03    1.0106116406e+05
    6.9616222754e-03    1.0106071094e+05
    6.9809844717e-03    1.0105149219e+05
    7.0003494620e-03    1.0105114844e+05
    7.0197195746e-03    1.0105208594e+05
    7.0390999317e-03    1.0105235156e+05
    7.0584909990e-03    1.0106717969e+05
    7.0778946392e-03    1.0108959375e+05
    7.0973108523e-03    1.0113049219e+05
    7.1167377755e-03    1.0121321094e+05
    7.1361698210e-03    1.0139267969e+05
    7.1556069888e-03    1.0174597656e+05
    7.1750483476e-03    1.0245692969e+05
    7.1944966912e-03    1.0381811719e+05
    7.2139529511e-03    1.0631016406e+05
    7.2334166616e-03    1.1052108594e+05
    7.2528840974e-03    1.1697233594e+05
    7.2723543271e-03    1.2577871875e+05
    7.2918278165e-03    1.3629850000e+05
    7.3113050312e-03    1.4710945312e+05
    7.3307845742e-03    1.5645026562e+05
    7.3502692394e-03    1.6300262500e+05
    7.3697618209e-03    1.6638418750e+05
    7.3892641813e-03    1.6707109375e+05
    7.4087800458e-03    1.6602293750e+05
    7.4282912537e-03    1.6415704688e+05
    7.4477996677e-03    1.6226690625e+05
    7.4673094787e-03    1.6070428125e+05
    7.4868267402e-03    1.5950095312e+05
    7.5063589029e-03    1.5848896875e+05
    7.5258887373e-03    1.5748034375e+05
    7.5454111211e-03    1.5629226562e+05
    7.5649353676e-03    1.5486548438e+05
    7.5844703242e-03    1.5320553125e+05
    7.6040057465e-03    1.5141939062e+05
    7.6235276647e-03    1.4961059375e+05
    7.6430505142e-03    1.4786745312e+05
    7.6625877991e-03    1.4624393750e+05
    7.6821087860e-03    1.4475081250e+05
    7.7016241848e-03    1.4336507812e+05
    7.7211544849e-03    1.4204928125e+05
    7.7406810597e-03    1.4077990625e+05
    7.7602043748e-03    1.3953943750e+05
    7.7797495760e-03    1.3831689062e+05
    7.7992938459e-03    1.3712098438e+05
    7.8188432381e-03    1.3596843750e+05
    7.8384252265e-03    1.3487050000e+05
    7.8580006957e-03    1.3383131250e+05
    7.8775910661e-03    1.3285542188e+05
    7.8972103074e-03    1.3194054688e+05
    7.9168286175e-03    1.3107789062e+05
    7.9364804551e-03    1.3025156250e+05
    7.9561360180e-03    1.2945341406e+05
    7.9758102074e-03    1.2867846094e+05
    7.9955114052e-03    1.2792827344e+05
    8.0152126029e-03    1.2719696094e+05
    8.0349491909e-03    1.2649963281e+05
    8.0546662211e-03    1.2583325781e+05
    8.0743944272e-03    1.2520039844e+05
    8.0941170454e-03    1.2459953906e+05
    8.1138620153e-03    1.2402869531e+05
    8.1336386502e-03    1.2348347656e+05
    8.1534720957e-03    1.2296403906e+05
    8.1733558327e-03    1.2245615625e+05
    8.1932730973e-03    1.2198133594e+05
    8.2132071257e-03    1.2152211719e+05
    8.2330890000e-03    1.2108277344e+05
    8.2529615611e-03    1.2067158594e+05
    8.2727763802e-03    1.2028987500e+05
    8.2926023751e-03    1.1993156250e+05
    8.3124246448e-03    1.1961189844e+05
    8.3322748542e-03    1.1931677344e+05
    8.3521194756e-03    1.1904678906e+05
    8.3719678223e-03    1.1879903906e+05
    8.3917891607e-03    1.1855916406e+05
    8.4116021171e-03    1.1833135156e+05
    8.4314141423e-03    1.1811039844e+05
    8.4512168542e-03    1.1789825000e+05
    8.4710381925e-03    1.1768953906e+05
    8.4908353165e-03    1.1748774219e+05
    8.5106678307e-03    1.1728905469e+05
    8.5304882377e-03    1.1709566406e+05
    8.5503393784e-03    1.1690491406e+05
    8.5699046031e-03    1.1672196094e+05
    8.5892248899e-03    1.1653994531e+05
    8.6083402857e-03    1.1636696875e+05
    8.6272666231e-03    1.1620919531e+05
    8.6460309103e-03    1.1605665625e+05
    8.6646731943e-03    1.1591768750e+05
    8.6832325906e-03    1.1579109375e+05
    8.7017398328e-03    1.1567133594e+05
    8.7202098221e-03    1.1555934375e+05
    8.7386453524e-03    1.1545283594e+05
    8.7570473552e-03    1.1534630469e+05
    8.7753897533e-03    1.1525302344e+05
    8.7936492637e-03    1.1515149219e+05
    8.8118780404e-03    1.1505733594e+05
    8.8300397620e-03    1.1495718750e+05
    8.8481390849e-03    1.1486894531e+05
    8.8662039489e-03    1.1477258594e+05
    8.8842641562e-03    1.1467777344e+05
    8.9023411274e-03    1.1457734375e+05
    8.9204348624e-03    1.1447687500e+05
    8.9385388419e-03    1.1437450781e+05
    8.9566456154e-03    1.1427315625e+05
    8.9747514576e-03    1.1417027344e+05
    8.9928600937e-03    1.1406857031e+05
    9.0109808370e-03    1.1396446875e+05
    9.0291155502e-03    1.1386183594e+05
    9.0472688898e-03    1.1374740625e+05
    9.0654399246e-03    1.1363303906e+05
    9.0836230665e-03    1.1350265625e+05
    9.1018192470e-03    1.1336422656e+05
    9.1200266033e-03    1.1322157031e+05
    9.1382460669e-03    1.1307803906e+05
    9.1564757749e-03    1.1292378906e+05
    9.1747231781e-03    1.1277228906e+05
    9.1929892078e-03    1.1261758594e+05
    9.2112747952e-03    1.1247028906e+05
    9.2295790091e-03    1.1232393750e+05
    9.2479009181e-03    1.1218822656e+05
    9.2662386596e-03    1.1206044531e+05
    9.2845931649e-03    1.1193846094e+05
    9.3029672280e-03    1.1183388281e+05
    9.3213599175e-03    1.1173794531e+05
    9.3397712335e-03    1.1165914844e+05
    9.3582011759e-03    1.1159135156e+05
    9.3766497448e-03    1.1153396094e+05
    9.3951150775e-03    1.1148578906e+05
    9.4135999680e-03    1.1144430469e+05
    9.4321016222e-03    1.1140649219e+05
    9.4506228343e-03    1.1137927344e+05
    9.4691645354e-03    1.1134559375e+05
    9.4877239317e-03    1.1130243750e+05
    9.5063010231e-03    1.1126084375e+05
    9.5248948783e-03    1.1120903906e+05
    9.5435054973e-03    1.1115210156e+05
    9.5621328801e-03    1.1108780469e+05
    9.5807760954e-03    1.1101625000e+05
    9.5994332805e-03    1.1093817969e+05
    9.6181081608e-03    1.1086478906e+05
    9.6367979422e-03    1.1078328906e+05
    9.6555035561e-03    1.1070534375e+05
    9.6742231399e-03    1.1063003125e+05
    9.6929576248e-03    1.1055828906e+05
    9.7117051482e-03    1.1048371875e+05
    9.7304685041e-03    1.1042364844e+05
    9.7492448986e-03    1.1036837500e+05
    9.7680361941e-03    1.1031864844e+05
    9.7868405282e-03    1.1027875000e+05
    9.8056588322e-03    1.1024408594e+05
    9.8244920373e-03    1.1021385156e+05
    9.8433364183e-03    1.1017915625e+05
    9.8621929064e-03    1.1014741406e+05
    9.8810633644e-03    1.1011500781e+05
    9.8999459296e-03    1.1008317969e+05
    9.9188406020e-03    1.1004509375e+05
    9.9377483130e-03    1.1000337500e+05
    9.9566690624e-03    1.0995877344e+05
    9.9756028503e-03    1.0990624219e+05
    9.9945487455e-03    1.0985094531e+05
    1.0013507679e-02    1.0979168750e+05
    1.0032479651e-02    1.0973434375e+05
    1.0051463731e-02    1.0967799219e+05
    1.0070459917e-02    1.0962346094e+05
    1.0089469142e-02    1.0957203906e+05
    1.0108492337e-02    1.0952368750e+05
    1.0127528571e-02    1.0947444531e+05
    1.0146577843e-02    1.0942653906e+05
    1.0165639222e-02    1.0938472656e+05
    1.0184712708e-02    1.0934467969e+05
    1.0203798302e-02    1.0930607031e+05
    1.0222896002e-02    1.0926508594e+05
    1.0242006741e-02    1.0922396875e+05
    1.0261129588e-02    1.0918546875e+05
    1.0280264542e-02    1.0914572656e+05
    1.0299413465e-02    1.0910717969e+05
    1.0318575427e-02    1.0906039844e+05
    1.0337748565e-02    1.0901630469e+05
    1.0356934741e-02    1.0895989844e+05
    1.0376133956e-02    1.0890006250e+05
    1.0395346209e-02    1.0883742969e+05
    1.0414571501e-02    1.0876763281e+05
    1.0433809832e-02    1.0869108594e+05
    1.0453061201e-02    1.0861675781e+05
    1.0472324677e-02    1.0854466406e+05
    1.0491601191e-02    1.0847027344e+05
    1.0510892607e-02    1.0839597656e+05
    1.0530196130e-02    1.0832257031e+05
    1.0549513623e-02    1.0825396094e+05
    1.0568842292e-02    1.0818306250e+05
    1.0588183999e-02    1.0811814844e+05
    1.0607538745e-02    1.0805361719e+05
    1.0626907460e-02    1.0799047656e+05
    1.0646289214e-02    1.0793183594e+05
    1.0665684007e-02    1.0786735156e+05
    1.0685092770e-02    1.0780725781e+05
    1.0704516433e-02    1.0774975000e+05
    1.0723951273e-02    1.0769982031e+05
    1.0743400082e-02    1.0764728906e+05
    1.0762862861e-02    1.0759937500e+05
    1.0782338679e-02    1.0754839844e+05
    1.0801829398e-02    1.0749674219e+05
    1.0821334086e-02    1.0744896094e+05
    1.0840852745e-02    1.0740072656e+05
    1.0860386305e-02    1.0735235156e+05
    1.0879932903e-02    1.0730396875e+05
    1.0899493471e-02    1.0725267969e+05
    1.0919069871e-02    1.0720734375e+05
    1.0938662104e-02    1.0715785156e+05
    1.0958270170e-02    1.0711769531e+05
    1.0977892205e-02    1.0707662500e+05
    1.0997531936e-02    1.0703322656e+05
    1.1017187499e-02    1.0699872656e+05
    1.1036860757e-02    1.0696549219e+05
    1.1056551710e-02    1.0692763281e+05
    1.1076259427e-02    1.0689093750e+05
    1.1095987633e-02    1.0686003906e+05
    1.1115733534e-02    1.0682506250e+05
    1.1135498993e-02    1.0679627344e+05
    1.1155283079e-02    1.0676285156e+05
    1.1175086722e-02    1.0672856250e+05
    1.1194912717e-02    1.0669037500e+05
    1.1214758269e-02    1.0666084375e+05
    1.1234625243e-02    1.0662106250e+05
    1.1254511774e-02    1.0657444531e+05
    1.1274418794e-02    1.0652652344e+05
    1.1294347234e-02    1.0646438281e+05
    1.1314296164e-02    1.0639552344e+05
    1.1334266514e-02    1.0631514844e+05
    1.1354257353e-02    1.0622071094e+05
    1.1374268681e-02    1.0610924219e+05
    1.1394302361e-02    1.0598675781e+05
    1.1414355598e-02    1.0584539844e+05
    1.1434430256e-02    1.0569685156e+05
    1.1454525404e-02    1.0552897656e+05
    1.1474640109e-02    1.0535193750e+05
    1.1494777165e-02    1.0515788281e+05
    1.1514934711e-02    1.0496471875e+05
    1.1535113677e-02    1.0476547656e+05
    1.1555313133e-02    1.0457446875e+05
    1.1575534008e-02    1.0438189844e+05
    1.1595774442e-02    1.0420057031e+05
    1.1616035365e-02    1.0402893750e+05
    1.1636316776e-02    1.0387521094e+05
    1.1656619608e-02    1.0372791406e+05
    1.1676942930e-02    1.0361025781e+05
    1.1697287671e-02    1.0350580469e+05
    1.1717652902e-02    1.0341305469e+05
    1.1738038622e-02    1.0334893750e+05
    1.1758443899e-02    1.0329914844e+05
    1.1778870597e-02    1.0326847656e+05
    1.1799318716e-02    1.0324552344e+05
    1.1819788255e-02    1.0323922656e+05
    1.1840280145e-02    1.0323724219e+05
    1.1860790662e-02    1.0324099219e+05
    1.1881321669e-02    1.0325788281e+05
    1.1901874095e-02    1.0326912500e+05
    1.1922447011e-02    1.0329310156e+05
    1.1943042278e-02    1.0331468750e+05
    1.1963658035e-02    1.0334235156e+05
    1.1984295212e-02    1.0337739844e+05
    1.2004952878e-02    1.0340856250e+05
    1.2025631964e-02    1.0344839844e+05
    1.2046331540e-02    1.0349177344e+05
    1.2067052536e-02    1.0353646875e+05
    1.2087795883e-02    1.0357939844e+05
    1.2108558789e-02    1.0362421875e+05
    1.2129344046e-02    1.0366294531e+05
    1.2150149792e-02    1.0368921875e+05
    1.2170976959e-02    1.0371666406e+05
    1.2191825546e-02    1.0373389844e+05
    1.2212695554e-02    1.0374697656e+05
    1.2233586982e-02    1.0375321094e+05
    1.2254500762e-02    1.0375121094e+05
    1.2275436893e-02    1.0375274219e+05
    1.2296394445e-02    1.0374450000e+05
    1.2317374349e-02    1.0373489844e+05
    1.2338375673e-02    1.0372175000e+05
    1.2359398417e-02    1.0369935156e+05
    1.2380442582e-02    1.0367737500e+05
    1.2401508167e-02    1.0365124219e+05
    1.2422595173e-02    1.0362527344e+05
    1.2443703599e-02    1.0358861719e+05
    1.2464834377e-02    1.0356155469e+05
    1.2485986575e-02    1.0352314844e+05
    1.2507158332e-02    1.0349175781e+05
    1.2528351508e-02    1.0345997656e+05
    1.2549565174e-02    1.0342115625e+05
    1.2570801191e-02    1.0338571094e+05
    1.2592058629e-02    1.0335096094e+05
    1.2613337487e-02    1.0331583594e+05
    1.2634636834e-02    1.0327930469e+05
    1.2655957602e-02    1.0324366406e+05
    1.2677297927e-02    1.0322214844e+05
    1.2698660605e-02    1.0321446094e+05
    1.2720043771e-02    1.0322928906e+05
    1.2741449289e-02    1.0326652344e+05
    1.2762876227e-02    1.0334733594e+05
    1.2784325518e-02    1.0348594531e+05
    1.2805794366e-02    1.0369956250e+05
    1.2827285565e-02    1.0401172656e+05
    1.2848797254e-02    1.0443217969e+05
    1.2870330364e-02    1.0498309375e+05
    1.2891885825e-02    1.0567950000e+05
    1.2913462706e-02    1.0651975000e+05
    1.2935061008e-02    1.0748480469e+05
    1.2956679799e-02    1.0853562500e+05
    1.2978320010e-02    1.0961581250e+05
    1.2999981642e-02    1.1064221094e+05
    1.3021663763e-02    1.1154199219e+05
    1.3043368235e-02    1.1223525781e+05
    1.3065092266e-02    1.1268161719e+05
    1.3086837716e-02    1.1286812500e+05
    1.3108605519e-02    1.1279996875e+05
    1.3130392879e-02    1.1249590625e+05
    1.3152201660e-02    1.1200011719e+05
    1.3174032792e-02    1.1137086719e+05
    1.3195885345e-02    1.1064968750e+05
    1.3217759319e-02    1.0990314844e+05
    1.3239653781e-02    1.0917322656e+05
    1.3261569664e-02    1.0851435156e+05
    1.3283506967e-02    1.0795025781e+05
    1.3305463828e-02    1.0748758594e+05
    1.3327440247e-02    1.0710621094e+05
    1.3349435292e-02    1.0678815625e+05
    1.3371448033e-02    1.0647935156e+05
    1.3393475674e-02    1.0614228906e+05
    1.3415516354e-02    1.0575824219e+05
    1.3437564485e-02    1.0530892969e+05
    1.3459613547e-02    1.0479656250e+05
    1.3481658883e-02    1.0423992969e+05
    1.3503690250e-02    1.0365236719e+05
    1.3525702059e-02    1.0306666406e+05
    1.3547683135e-02    1.0250468750e+05
    1.3569628820e-02    1.0199589844e+05
    1.3591531664e-02    1.0155375000e+05
    1.3613392599e-02    1.0119038281e+05
    1.3635210693e-02    1.0090771875e+05
    1.3656994328e-02    1.0069866406e+05
    1.3678749092e-02    1.0055469531e+05
    1.3700488023e-02    1.0046272656e+05
    1.3722228818e-02    1.0041539844e+05
    1.3743981719e-02    1.0040365625e+05
    1.3765762560e-02    1.0041696094e+05
    1.3787578791e-02    1.0044085156e+05
    1.3809437864e-02    1.0047390625e+05
    1.3831341639e-02    1.0050692969e+05
    1.3853288256e-02    1.0053975000e+05
    1.3875273056e-02    1.0057822656e+05
    1.3897285797e-02    1.0061531250e+05
    1.3919321820e-02    1.0065506250e+05
    1.3941374607e-02    1.0069357031e+05
    1.3963440433e-02    1.0072803906e+05
    1.3985517435e-02    1.0076752344e+05
    1.4007603750e-02    1.0080571875e+05
    1.4029704034e-02    1.0084094531e+05
    1.4051820152e-02    1.0087588281e+05
    1.4073957689e-02    1.0090935156e+05
    1.4096121304e-02    1.0093897656e+05
    1.4118315652e-02    1.0096397656e+05
    1.4140545391e-02    1.0098811719e+05
    1.4162814245e-02    1.0102569531e+05
    1.4185124077e-02    1.0107149219e+05
    1.4207473956e-02    1.0112889844e+05
    1.4229862019e-02    1.0119362500e+05
    1.4252286404e-02    1.0126778125e+05
    1.4274741523e-02    1.0133044531e+05
    1.4297228307e-02    1.0139458594e+05
    1.4319745824e-02    1.0144861719e+05
    1.4342290349e-02    1.0148317969e+05
    1.4364863746e-02    1.0149666406e+05
    1.4387467876e-02    1.0148959375e+05
    1.4410103671e-02    1.0146461719e+05
    1.4432771131e-02    1.0142910156e+05
    1.4455472119e-02    1.0139835156e+05
    1.4478209428e-02    1.0136603125e+05
    1.4500979334e-02    1.0135337500e+05
    1.4523783699e-02    1.0135247656e+05
    1.4546621591e-02    1.0136627344e+05
    1.4569494873e-02    1.0139003906e+05
    1.4592399821e-02    1.0142666406e+05
    1.4615339227e-02    1.0146053125e+05
    1.4638305642e-02    1.0149867969e+05
    1.4661304653e-02    1.0153072656e+05
    1.4684336260e-02    1.0154761719e+05
    1.4707398601e-02    1.0156109375e+05
    1.4730494469e-02    1.0157496094e+05
    1.4753622934e-02    1.0158421875e+05
    1.4776783995e-02    1.0159457031e+05
    1.4799979515e-02    1.0159886719e+05
    1.4823205769e-02    1.0161703906e+05
    1.4846466482e-02    1.0162586719e+05
    1.4869757928e-02    1.0164032031e+05
    1.4893081971e-02    1.0164660156e+05
    1.4916437678e-02    1.0165111719e+05
    1.4939822257e-02    1.0165303906e+05
    1.4963239431e-02    1.0164642969e+05
    1.4986685477e-02    1.0163557031e+05
    1.5010161325e-02    1.0162496094e+05
    1.5033668838e-02    1.0160178906e+05
    1.5057205223e-02    1.0158743750e+05
    1.5080772340e-02    1.0156635156e+05
    1.5104367398e-02    1.0154778125e+05
    1.5127992257e-02    1.0152941406e+05
    1.5151646920e-02    1.0150975781e+05
    1.5175330453e-02    1.0149250781e+05
    1.5199041925e-02    1.0147199219e+05
    1.5222782269e-02    1.0145111719e+05
    1.5246548690e-02    1.0142581250e+05
    1.5270343982e-02    1.0139837500e+05
    1.5294168144e-02    1.0136689844e+05
    1.5318016522e-02    1.0133074219e+05
    1.5341891907e-02    1.0129875781e+05
    1.5365792438e-02    1.0126608594e+05
    1.5389721841e-02    1.0122556250e+05
    1.5413676389e-02    1.0118777344e+05
    1.5437657945e-02    1.0116259375e+05
    1.5461664647e-02    1.0113453906e+05
    1.5485695563e-02    1.0110278125e+05
    1.5509752557e-02    1.0107867969e+05
    1.5533835627e-02    1.0105322656e+05
    1.5557944775e-02    1.0102424219e+05
    1.5582079068e-02    1.0099761719e+05
    1.5606240369e-02    1.0096557031e+05
    1.5630424023e-02    1.0094066406e+05
    1.5654634684e-02    1.0091124219e+05
    1.5678871423e-02    1.0088566406e+05
    1.5703132376e-02    1.0085077344e+05
    1.5727419406e-02    1.0081983594e+05
    1.5751728788e-02    1.0079034375e+05
    1.5776060522e-02    1.0075800781e+05
    1.5800418332e-02    1.0073153906e+05
    1.5824800357e-02    1.0070441406e+05
    1.5849204734e-02    1.0067797656e+05
    1.5873633325e-02    1.0065442969e+05
    1.5898084268e-02    1.0063871094e+05
    1.5922557563e-02    1.0061441406e+05
    1.5947058797e-02    1.0058469531e+05
    1.5971582383e-02    1.0055332031e+05
    1.5996130183e-02    1.0052499219e+05
    1.6020702198e-02    1.0048831250e+05
    1.6045298427e-02    1.0045944531e+05
    1.6069920734e-02    1.0043378906e+05
    1.6094569117e-02    1.0040539844e+05
    1.6119243577e-02    1.0037422656e+05
    1.6143942252e-02    1.0034752344e+05
    1.6168667004e-02    1.0031571094e+05
    1.6193419695e-02    1.0028686719e+05
    1.6218200326e-02    1.0026207031e+05
    1.6243007034e-02    1.0023877344e+05
    1.6267839819e-02    1.0021177344e+05
    1.6292702407e-02    1.0018442969e+05
    1.6317596659e-02    1.0015196094e+05
    1.6342513263e-02    1.0012617969e+05
    1.6367461532e-02    1.0010217969e+05
    1.6392435879e-02    1.0007260156e+05
    1.6417443752e-02    1.0004353125e+05
    1.6442479566e-02    1.0000853125e+05
    1.6467543319e-02    9.9977656250e+04
    1.6492636874e-02    9.9942804688e+04
    1.6517756507e-02    9.9909687500e+04
    1.6542907804e-02    9.9867914062e+04
    1.6568088904e-02    9.9829929688e+04
    1.6593271866e-02    9.9788906250e+04
    1.6618426889e-02    9.9753960938e+04
    1.6643559560e-02    9.9715476562e+04
    1.6668669879e-02    9.9678289062e+04
    1.6693757847e-02    9.9642210938e+04
    1.6718825325e-02    9.9610773438e+04
    1.6743874177e-02    9.9580867188e+04
    1.6768900678e-02    9.9564414062e+04
    1.6793908551e-02    9.9550781250e+04
    1.6818899661e-02    9.9538679688e+04
    1.6843874007e-02    9.9531375000e+04
    1.6868829727e-02    9.9542664062e+04
    1.6893770546e-02    9.9553648438e+04
    1.6918692738e-02    9.9581617188e+04
    1.6943598166e-02    9.9615460938e+04
    1.6968490556e-02    9.9664476562e+04
    1.6993366182e-02    9.9714812500e+04
    1.7018226907e-02    9.9765625000e+04
    1.7043072730e-02    9.9821195312e+04
    1.7067901790e-02    9.9882289062e+04
    1.7092714086e-02    9.9945914062e+04
    1.7117511481e-02    1.0001353906e+05
    1.7142292112e-02    1.0006678906e+05
    1.7167057842e-02    1.0011633594e+05
    1.7191808671e-02    1.0016064844e+05
    1.7216544598e-02    1.0020435156e+05
    1.7241263762e-02    1.0024135156e+05
    1.7265968025e-02    1.0027016406e+05
    1.7290659249e-02    1.0029836719e+05
    1.7315333709e-02    1.0032203906e+05
    1.7339993268e-02    1.0035022656e+05
    1.7364639789e-02    1.0037447656e+05
    1.7389267683e-02    1.0040340625e+05
    1.7413880676e-02    1.0043502344e+05
    1.7438478768e-02    1.0047241406e+05
    1.7463061959e-02    1.0051602344e+05
    1.7487626523e-02    1.0056852344e+05
    1.7512176186e-02    1.0062362500e+05
    1.7536709085e-02    1.0068553125e+05
    1.7561223358e-02    1.0075521875e+05
    1.7585720867e-02    1.0083256250e+05
    1.7610201612e-02    1.0091408594e+05
    1.7634663731e-02    1.0100099219e+05
    1.7659107223e-02    1.0109124219e+05
    1.7683532089e-02    1.0117789844e+05
    1.7707940191e-02    1.0126375000e+05
    1.7732329667e-02    1.0134631250e+05
    1.7756698653e-02    1.0142503125e+05
    1.7781050876e-02    1.0149940625e+05
    1.7805384472e-02    1.0156299219e+05
    1.7829699442e-02    1.0161650781e+05
    1.7853999510e-02    1.0166167969e+05
    1.7878280953e-02    1.0169688281e+05
    1.7902545631e-02    1.0172258594e+05
    1.7926793545e-02    1.0173403906e+05
    1.7951028422e-02    1.0174988281e+05
    1.7975246534e-02    1.0175187500e+05
    1.7999447882e-02    1.0174985156e+05
    1.8023636192e-02    1.0173639844e+05
    1.8047811463e-02    1.0172653125e+05
    1.8071975559e-02    1.0171590625e+05
    1.8096126616e-02    1.0171139844e+05
    1.8120266497e-02    1.0171471094e+05
    1.8144397065e-02    1.0170777344e+05
    1.8168520182e-02    1.0170542969e+05
    1.8192630261e-02    1.0170777344e+05
    1.8216732889e-02    1.0171121094e+05
    1.8240824342e-02    1.0171756250e+05
    1.8264908344e-02    1.0172515625e+05
    1.8288983032e-02    1.0172903125e+05
    1.8313048407e-02    1.0173890625e+05
    1.8337102607e-02    1.0175427344e+05
    1.8361147493e-02    1.0176834375e+05
    1.8385183066e-02    1.0179344531e+05
    1.8409207463e-02    1.0182083594e+05
    1.8433224410e-02    1.0184727344e+05
    1.8457230181e-02    1.0188561719e+05
    1.8481226638e-02    1.0192110156e+05
    1.8505210057e-02    1.0197300781e+05
    1.8529184163e-02    1.0203016406e+05
    1.8553148955e-02    1.0209292969e+05
    1.8577100709e-02    1.0216865625e+05
    1.8601041287e-02    1.0224940625e+05
    1.8624972552e-02    1.0234391406e+05
    1.8648892641e-02    1.0243844531e+05
    1.8672801554e-02    1.0254728906e+05
    1.8696699291e-02    1.0266599219e+05
    1.8720587716e-02    1.0279108594e+05
    1.8744463101e-02    1.0291765625e+05
    1.8768329173e-02    1.0304834375e+05
    1.8792184070e-02    1.0317102344e+05
    1.8816027790e-02    1.0328231250e+05
    1.8839860335e-02    1.0338281250e+05
    1.8863683566e-02    1.0345772656e+05
    1.8887493759e-02    1.0350441406e+05
    1.8911294639e-02    1.0352837500e+05
    1.8935086206e-02    1.0351977344e+05
    1.8958866596e-02    1.0348156250e+05
    1.8982635811e-02    1.0340084375e+05
    1.9006397575e-02    1.0328644531e+05
    1.9030146301e-02    1.0314037500e+05
    1.9053885713e-02    1.0295637500e+05
    1.9077615812e-02    1.0274915625e+05
    1.9101334736e-02    1.0251581250e+05
    1.9125042483e-02    1.0226425000e+05
    1.9148740917e-02    1.0200758594e+05
    1.9172428176e-02    1.0175552344e+05
    1.9196104258e-02    1.0152003906e+05
    1.9219771028e-02    1.0131249219e+05
    1.9243424758e-02    1.0112819531e+05
    1.9267069176e-02    1.0097192969e+05
    1.9290700555e-02    1.0085446094e+05
    1.9314322621e-02    1.0077213281e+05
    1.9337931648e-02    1.0071461719e+05
    1.9361529499e-02    1.0068946875e+05
    1.9385114312e-02    1.0068191406e+05
    1.9408687949e-02    1.0068500000e+05
    1.9432250410e-02    1.0070283594e+05
    1.9455801696e-02    1.0073116406e+05
    1.9479339942e-02    1.0076486719e+05
    1.9502865151e-02    1.0080078906e+05
    1.9526379183e-02    1.0083877344e+05
    1.9549878314e-02    1.0087546094e+05
    1.9573366269e-02    1.0090902344e+05
    1.9596841186e-02    1.0096089844e+05
    1.9620303065e-02    1.0100553906e+05
    1.9643751904e-02    1.0105228125e+05
    1.9667187706e-02    1.0109677344e+05
    1.9690606743e-02    1.0113833594e+05
    1.9714014605e-02    1.0118049219e+05
    1.9737409428e-02    1.0121741406e+05
    1.9760791212e-02    1.0125632031e+05
    1.9784159958e-02    1.0128791406e+05
    1.9807513803e-02    1.0132046875e+05
    1.9830854610e-02    1.0135847656e+05
    1.9854182377e-02    1.0139447656e+05
    1.9877497107e-02    1.0143310156e+05
    1.9900798798e-02    1.0147746875e+05
    1.9924087450e-02    1.0151941406e+05
    1.9947361201e-02    1.0156332031e+05
    1.9970623776e-02    1.0159721875e+05
    1.9993871450e-02    1.0164441406e+05
    2.0017107949e-02    1.0168685156e+05
    2.0040329546e-02    1.0172678906e+05
    2.0063538104e-02    1.0176912500e+05
    2.0086731762e-02    1.0180150781e+05
    2.0109914243e-02    1.0183100781e+05
    2.0133081824e-02    1.0186612500e+05
    2.0156236365e-02    1.0189665625e+05
    2.0179376006e-02    1.0193389844e+05
    2.0202504471e-02    1.0196285156e+05
    2.0225618035e-02    1.0199868750e+05
    2.0248720422e-02    1.0203660156e+05
    2.0271807909e-02    1.0208169531e+05
    2.0294882357e-02    1.0212758594e+05
    2.0317947492e-02    1.0217361719e+05
    2.0340997726e-02    1.0222002344e+05
    2.0364036784e-02    1.0226305469e+05
    2.0387060940e-02    1.0230342969e+05
    2.0410073921e-02    1.0234259375e+05
    2.0433073863e-02    1.0238163281e+05
    2.0456060767e-02    1.0241099219e+05
    2.0479036495e-02    1.0244368750e+05
    2.0501999184e-02    1.0247013281e+05
    2.0524948835e-02    1.0248792969e+05
    2.0547885448e-02    1.0250691406e+05
    2.0570809022e-02    1.0251808594e+05
    2.0593719557e-02    1.0252188281e+05
    2.0616617054e-02    1.0253489844e+05
    2.0639499649e-02    1.0253141406e+05
    2.0662369207e-02    1.0252853125e+05
    2.0685223863e-02    1.0252550781e+05
    2.0708063617e-02    1.0252466406e+05
    2.0730890334e-02    1.0251516406e+05
    2.0753700286e-02    1.0250585156e+05
    2.0776495337e-02    1.0250041406e+05
    2.0799275488e-02    1.0249358594e+05
    2.0822042599e-02    1.0248536719e+05
    2.0844791085e-02    1.0248386719e+05
    2.0867524669e-02    1.0247650000e+05
    2.0890241489e-02    1.0247080469e+05
    2.0912945271e-02    1.0247014844e+05
    2.0935632288e-02    1.0246652344e+05
    2.0958306268e-02    1.0245607031e+05
    2.0980965346e-02    1.0244946094e+05
    2.1003607661e-02    1.0243893750e+05
    2.1026238799e-02    1.0242633594e+05
    2.1048855036e-02    1.0241433594e+05
    2.1071458235e-02    1.0239853906e+05
    2.1094048396e-02    1.0238018750e+05
    2.1116625518e-02    1.0235841406e+05
    2.1139191464e-02    1.0233339844e+05
    2.1161744371e-02    1.0231053125e+05
    2.1184286103e-02    1.0228485156e+05
    2.1206818521e-02    1.0226278906e+05
    2.1229337901e-02    1.0224458594e+05
    2.1251846105e-02    1.0221664844e+05
    2.1274344996e-02    1.0219049219e+05
    2.1296832711e-02    1.0216815625e+05
    2.1319312975e-02    1.0214678906e+05
    2.1341778338e-02    1.0212102344e+05
    2.1364232525e-02    1.0209239844e+05
    2.1386675537e-02    1.0206871094e+05
    2.1409107372e-02    1.0204103125e+05
    2.1431528032e-02    1.0202019531e+05
    2.1453931928e-02    1.0200386719e+05
    2.1476324648e-02    1.0198947656e+05
    2.1498700604e-02    1.0197092969e+05
    2.1521063522e-02    1.0194910156e+05
    2.1543409675e-02    1.0193602344e+05
    2.1565740928e-02    1.0192328906e+05
    2.1588053554e-02    1.0190621094e+05
    2.1610351279e-02    1.0188928906e+05
    2.1632634103e-02    1.0188003906e+05
    2.1654898301e-02    1.0187046875e+05
    2.1677147597e-02    1.0185753125e+05
    2.1699378267e-02    1.0184313281e+05
    2.1721594036e-02    1.0183160156e+05
    2.1743793041e-02    1.0181783594e+05
    2.1765975282e-02    1.0181344531e+05
    2.1788140759e-02    1.0180975000e+05
    2.1810289472e-02    1.0179606250e+05
    2.1832419559e-02    1.0178347656e+05
    2.1854531020e-02    1.0177082031e+05
    2.1876627579e-02    1.0175857031e+05
    2.1898705512e-02    1.0174549219e+05
    2.1920768544e-02    1.0173660156e+05
    2.1942811087e-02    1.0173310156e+05
    2.1964838728e-02    1.0172672656e+05
    2.1986849606e-02    1.0171440625e+05
    2.2008845583e-02    1.0169428906e+05
    2.2030822933e-02    1.0168271094e+05
    2.2052785382e-02    1.0167903125e+05
    2.2074732929e-02    1.0167103906e+05
    2.2096665576e-02    1.0166578906e+05
    2.2118583322e-02    1.0166099219e+05
    2.2140489891e-02    1.0165128125e+05
    2.2162377834e-02    1.0163133594e+05
    2.2184254602e-02    1.0162065625e+05
    2.2206118330e-02    1.0160878906e+05
    2.2227969021e-02    1.0159750000e+05
    2.2249806672e-02    1.0158577344e+05
    2.2271629423e-02    1.0157535156e+05
    2.2293440998e-02    1.0156497656e+05
    2.2315241396e-02    1.0155566406e+05
    2.2337028757e-02    1.0154272656e+05
    2.2358803079e-02    1.0153531250e+05
    2.2380566224e-02    1.0152510156e+05
    2.2402318195e-02    1.0151696094e+05
    2.2424057126e-02    1.0150878125e+05
    2.2445784882e-02    1.0150250781e+05
    2.2467501462e-02    1.0150688281e+05
    2.2489206865e-02    1.0150808594e+05
    2.2510899231e-02    1.0151103906e+05
    2.2532582283e-02    1.0152210156e+05
    2.2554252297e-02    1.0153324219e+05
    2.2575911134e-02    1.0154610156e+05
    2.2597560659e-02    1.0155535156e+05
    2.2619199008e-02    1.0156666406e+05
    2.2640828043e-02    1.0157880469e+05
    2.2662445903e-02    1.0159871094e+05
    2.2684050724e-02    1.0162580469e+05
    2.2705646232e-02    1.0164652344e+05
    2.2727232426e-02    1.0166739844e+05
    2.2748809308e-02    1.0169189844e+05
    2.2770375013e-02    1.0171649219e+05
    2.2791929543e-02    1.0174316406e+05
    2.2813472897e-02    1.0175897656e+05
    2.2835006937e-02    1.0177490625e+05
    2.2856531665e-02    1.0178837500e+05
    2.2878047079e-02    1.0179697656e+05
    2.2899549454e-02    1.0180893750e+05
    2.2921044379e-02    1.0180938281e+05
    2.2942528129e-02    1.0181721094e+05
    2.2964000702e-02    1.0182260156e+05
    2.2985465825e-02    1.0182374219e+05
    2.3006917909e-02    1.0181766406e+05
    2.3028360680e-02    1.0181003906e+05
    2.3049792275e-02    1.0179961719e+05
    2.3071214557e-02    1.0178675000e+05
    2.3092625663e-02    1.0177141406e+05
    2.3114029318e-02    1.0175432031e+05
    2.3135419935e-02    1.0173452344e+05
    2.3156799376e-02    1.0171892969e+05
    2.3178169504e-02    1.0169922656e+05
    2.3199530318e-02    1.0167771094e+05
    2.3220879957e-02    1.0164868750e+05
    2.3242218420e-02    1.0162708594e+05
    2.3263547570e-02    1.0160458594e+05
    2.3284865543e-02    1.0158585156e+05
    2.3306174204e-02    1.0157200781e+05
    2.3327469826e-02    1.0155910156e+05
    2.3348756135e-02    1.0154724219e+05
    2.3370031267e-02    1.0153505469e+05
    2.3391297087e-02    1.0153730469e+05
    2.3412553594e-02    1.0153141406e+05
    2.3433798924e-02    1.0153227344e+05
    2.3455033079e-02    1.0153446094e+05
    2.3476256058e-02    1.0153741406e+05
    2.3497469723e-02    1.0154164844e+05
    2.3518672213e-02    1.0154235156e+05
    2.3539865389e-02    1.0155291406e+05
    2.3561049253e-02    1.0156141406e+05
    2.3582221940e-02    1.0156827344e+05
    2.3603385314e-02    1.0157552344e+05
    2.3624535650e-02    1.0158466406e+05
    2.3645676672e-02    1.0158667969e+05
    2.3666808382e-02    1.0158593750e+05
    2.3687927052e-02    1.0158403906e+05
    2.3709038273e-02    1.0158878906e+05
    2.3730138317e-02    1.0158718750e+05
    2.3751227185e-02    1.0158127344e+05
    2.3772306740e-02    1.0157816406e+05
    2.3793375120e-02    1.0157443750e+05
    2.3814432323e-02    1.0156186719e+05
    2.3835480213e-02    1.0155235156e+05
    2.3856516927e-02    1.0154228125e+05
    2.3877544329e-02    1.0153121094e+05
    2.3898560554e-02    1.0151853906e+05
    2.3919565603e-02    1.0151163281e+05
    2.3940561339e-02    1.0150074219e+05
    2.3961545900e-02    1.0149422656e+05
    2.3982519284e-02    1.0148813281e+05
    2.4003483355e-02    1.0148246875e+05
    2.4024436250e-02    1.0146986719e+05
    2.4045377970e-02    1.0146253906e+05
    2.4066310376e-02    1.0146678906e+05
    2.4087233469e-02    1.0146250781e+05
    2.4108145386e-02    1.0145918750e+05
    2.4129044265e-02    1.0145608594e+05
    2.4149935693e-02    1.0145196875e+05
    2.4170814082e-02    1.0144805469e+05
    2.4191683158e-02    1.0144434375e+05
    2.4212542921e-02    1.0144493750e+05
    2.4233391508e-02    1.0144746875e+05
    2.4254228920e-02    1.0145009375e+05
    2.4275057018e-02    1.0145305469e+05
    2.4295873940e-02    1.0145132031e+05
    2.4316681549e-02    1.0144985156e+05
    2.4337477982e-02    1.0145261719e+05
    2.4358265102e-02    1.0145485156e+05
    2.4379042909e-02    1.0145822656e+05
    2.4399809539e-02    1.0146207031e+05
    2.4420566857e-02    1.0146916406e+05
    2.4441312999e-02    1.0147703906e+05
    2.4462047964e-02    1.0148621094e+05
    2.4482775480e-02    1.0149574219e+05
    2.4503491819e-02    1.0150981250e+05
    2.4524198845e-02    1.0152558594e+05
    2.4544894695e-02    1.0154247656e+05
    2.4565581232e-02    1.0156039844e+05
    2.4586258456e-02    1.0157853906e+05
    2.4606924504e-02    1.0159344531e+05
    2.4627581239e-02    1.0160765625e+05
    2.4648228660e-02    1.0162316406e+05
    2.4668866768e-02    1.0163878906e+05
    2.4689495564e-02    1.0164964844e+05
    2.4710113183e-02    1.0166042969e+05
    2.4730721489e-02    1.0167085156e+05
    2.4751318619e-02    1.0167165625e+05
    2.4771906435e-02    1.0167791406e+05
    2.4792486802e-02    1.0167857031e+05
    2.4813055992e-02    1.0166966406e+05
    2.4833614007e-02    1.0166050781e+05
    2.4854162708e-02    1.0164810156e+05
    2.4874702096e-02    1.0162972656e+05
    2.4895232171e-02    1.0160919531e+05
    2.4915752932e-02    1.0158365625e+05
    2.4936262518e-02    1.0155500781e+05
    2.4956764653e-02    1.0152846094e+05
    2.4977253750e-02    1.0148846875e+05
    2.4997735396e-02    1.0145689844e+05
    2.5018205866e-02    1.0141902344e+05
    2.5038668886e-02    1.0138259375e+05
    2.5059120730e-02    1.0135016406e+05
    2.5079563260e-02    1.0132175000e+05
    2.5099996477e-02    1.0129784375e+05
    2.5120420381e-02    1.0127925781e+05
    2.5140833110e-02    1.0127074219e+05
    2.5161236525e-02    1.0127339844e+05
    2.5181630626e-02    1.0127247656e+05
    2.5202017277e-02    1.0128411719e+05
    2.5222390890e-02    1.0129847656e+05
    2.5242757052e-02    1.0132202344e+05
    2.5263112038e-02    1.0135783594e+05
    2.5283459574e-02    1.0138743750e+05
    2.5303795934e-02    1.0142084375e+05
    2.5324124843e-02    1.0145546094e+05
    2.5344440714e-02    1.0149158594e+05
    2.5364749134e-02    1.0152271094e+05
    2.5385048240e-02    1.0155584375e+05
    2.5405339897e-02    1.0159058594e+05
    2.5425618514e-02    1.0161797656e+05
    2.5445887819e-02    1.0164450000e+05
    2.5466147810e-02    1.0166744531e+05
    2.5486400351e-02    1.0169559375e+05
    2.5506639853e-02    1.0171421094e+05
    2.5526873767e-02    1.0173328125e+05
    2.5547094643e-02    1.0175100000e+05
    2.5567308068e-02    1.0176217969e+05
    2.5587510318e-02    1.0177812500e+05
    2.5607703254e-02    1.0179571875e+05
    2.5627886876e-02    1.0181325000e+05
    2.5648061186e-02    1.0183093750e+05
    2.5668226182e-02    1.0183768750e+05
    2.5688380003e-02    1.0185350781e+05
    2.5708526373e-02    1.0186434375e+05
    2.5728661567e-02    1.0187450000e+05
    2.5748789310e-02    1.0188869531e+05
    2.5768904015e-02    1.0190321094e+05
    2.5789011270e-02    1.0191792969e+05
    2.5809109211e-02    1.0192275781e+05
    2.5829195976e-02    1.0193603906e+05
    2.5849273428e-02    1.0193933594e+05
    2.5869343430e-02    1.0194189844e+05
    2.5889402255e-02    1.0194716406e+05
    2.5909451768e-02    1.0195441406e+05
    2.5929493830e-02    1.0195846094e+05
    2.5949522853e-02    1.0195930469e+05
    2.5969544426e-02    1.0195341406e+05
    2.5989556685e-02    1.0195202344e+05
    2.6009559631e-02    1.0194952344e+05
    2.6029553264e-02    1.0194710156e+05
    2.6049537584e-02    1.0194205469e+05
    2.6069512591e-02    1.0193966406e+05
    2.6089478284e-02    1.0193272656e+05
    2.6109432802e-02    1.0192389844e+05
    2.6129379869e-02    1.0191477344e+05
    2.6149315760e-02    1.0191297656e+05
    2.6169244200e-02    1.0190149219e+05
    2.6189163327e-02    1.0190102344e+05
    2.6209073141e-02    1.0189444531e+05
    2.6228975505e-02    1.0188621875e+05
    2.6248866692e-02    1.0188321094e+05
    2.6268748567e-02    1.0187066406e+05
    2.6288621128e-02    1.0186453125e+05
    2.6308484375e-02    1.0185225000e+05
    2.6328338310e-02    1.0184846094e+05
    2.6348184794e-02    1.0185278906e+05
    2.6368021965e-02    1.0184790625e+05
    2.6387847960e-02    1.0183360156e+05
    2.6407664642e-02    1.0182925781e+05
    2.6427472010e-02    1.0182337500e+05
    2.6447271928e-02    1.0180847656e+05
    2.6467062533e-02    1.0180246875e+05
    2.6486843824e-02    1.0179667969e+05
    2.6506617665e-02    1.0179117969e+05
    2.6526380330e-02    1.0179591406e+05
    2.6546133682e-02    1.0179208594e+05
    2.6565877721e-02    1.0179303906e+05
    2.6585612446e-02    1.0178921094e+05
    2.6605339721e-02    1.0178175000e+05
    2.6625057682e-02    1.0177813281e+05
    2.6644766331e-02    1.0177381250e+05
    2.6664465666e-02    1.0176891406e+05
    2.6684155688e-02    1.0176743750e+05
    2.6703836396e-02    1.0176019531e+05
    2.6723509654e-02    1.0175603125e+05
    2.6743173599e-02    1.0176250000e+05
    2.6762828231e-02    1.0175953906e+05
    2.6782475412e-02    1.0175510156e+05
    2.6802113280e-02    1.0175675781e+05
    2.6821739972e-02    1.0175785156e+05
    2.6841359213e-02    1.0175572656e+05
    2.6860967278e-02    1.0175309375e+05
    2.6880569756e-02    1.0175052344e+05
    2.6900164783e-02    1.0174874219e+05
    2.6919748634e-02    1.0174683594e+05
    2.6939325035e-02    1.0175387500e+05
    2.6958892122e-02    1.0175221875e+05
    2.6978449896e-02    1.0175555469e+05
    2.6997998357e-02    1.0175786719e+05
    2.7017539367e-02    1.0175900000e+05
    2.7037071064e-02    1.0175840625e+05
    2.7056595311e-02    1.0175771875e+05
    2.7076110244e-02    1.0175516406e+05
    2.7095617726e-02    1.0175671094e+05
    2.7115115896e-02    1.0175558594e+05
    2.7134604752e-02    1.0175425000e+05
    2.7154086158e-02    1.0176435156e+05
    2.7173558250e-02    1.0176468750e+05
    2.7193021029e-02    1.0177060156e+05
    2.7212476358e-02    1.0177525781e+05
    2.7231922373e-02    1.0177246094e+05
    2.7251357213e-02    1.0177368750e+05
    2.7270786464e-02    1.0177419531e+05
    2.7290204540e-02    1.0178233594e+05
    2.7309613302e-02    1.0178427344e+05
    2.7329014614e-02    1.0178509375e+05
    2.7348404750e-02    1.0178667969e+05
    2.7367785573e-02    1.0178830469e+05
    2.7387158945e-02    1.0179010156e+05
    2.7406521142e-02    1.0180018750e+05
    2.7425874025e-02    1.0180289844e+05
    2.7445219457e-02    1.0180508594e+05
    2.7464553714e-02    1.0180719531e+05
    2.7483878657e-02    1.0181059375e+05
    2.7503194287e-02    1.0181371094e+05
    2.7522502467e-02    1.0182108594e+05
    2.7541799471e-02    1.0183019531e+05
    2.7561087161e-02    1.0183317969e+05
    2.7580365539e-02    1.0183753906e+05
    2.7599634603e-02    1.0184203906e+05
    2.7618894354e-02    1.0184663281e+05
    2.7638144791e-02    1.0185135156e+05
    2.7657385916e-02    1.0185571875e+05
    2.7676619589e-02    1.0186078906e+05
    2.7695843950e-02    1.0187452344e+05
    2.7715058997e-02    1.0188016406e+05
    2.7734262869e-02    1.0187667969e+05
    2.7753459290e-02    1.0188349219e+05
    2.7772648260e-02    1.0188746094e+05
    2.7791827917e-02    1.0189266406e+05
    2.7810998261e-02    1.0189725000e+05
    2.7830159292e-02    1.0190296094e+05
    2.7849311009e-02    1.0190753906e+05
    2.7868455276e-02    1.0191092969e+05
    2.7887590230e-02    1.0191428906e+05
    2.7906717733e-02    1.0191625781e+05
    2.7925835922e-02    1.0192671094e+05
    2.7944946662e-02    1.0192391406e+05
    2.7964048088e-02    1.0192439844e+05
    2.7983140200e-02    1.0192802344e+05
    2.8002224863e-02    1.0193063281e+05
    2.8021300212e-02    1.0192877344e+05
    2.8040368110e-02    1.0192171094e+05
    2.8059426695e-02    1.0192289844e+05
    2.8078475967e-02    1.0191872656e+05
    2.8097519651e-02    1.0191924219e+05
    2.8116554022e-02    1.0192019531e+05
    2.8135580942e-02    1.0191934375e+05
    2.8154598549e-02    1.0191918750e+05
    2.8173606843e-02    1.0191860156e+05
    2.8192607686e-02    1.0191293750e+05
    2.8211599216e-02    1.0190691406e+05
    2.8230583295e-02    1.0189997656e+05
    2.8249559924e-02    1.0189178906e+05
    2.8268527240e-02    1.0188875000e+05
    2.8287487105e-02    1.0188442969e+05
    2.8306435794e-02    1.0188047656e+05
    2.8325378895e-02    1.0187746094e+05
    2.8344312683e-02    1.0187360156e+05
    2.8363237157e-02    1.0187064844e+05
    2.8382156044e-02    1.0186747656e+05
    2.8401065618e-02    1.0186196875e+05
    2.8419965878e-02    1.0186091406e+05
    2.8438858688e-02    1.0185721094e+05
    2.8457742184e-02    1.0185427344e+05
    2.8476616368e-02    1.0185221094e+05
    2.8495483100e-02    1.0185097656e+05
    2.8514338657e-02    1.0185815625e+05
    2.8533160686e-02    1.0185711719e+05
    2.8551930562e-02    1.0185691406e+05
    2.8570635244e-02    1.0186089844e+05
    2.8589271009e-02    1.0186116406e+05
    2.8607837856e-02    1.0186271094e+05
    2.8626350686e-02    1.0186402344e+05
    2.8644818813e-02    1.0186450000e+05
    2.8663259000e-02    1.0187017969e+05
    2.8681686148e-02    1.0187627344e+05
    2.8700113297e-02    1.0188410156e+05
    2.8718546033e-02    1.0188572656e+05
    2.8736986220e-02    1.0188668750e+05
    2.8755431995e-02    1.0188864844e+05
    2.8773877770e-02    1.0188363281e+05
    2.8792314231e-02    1.0188960156e+05
    2.8810730204e-02    1.0189353906e+05
    2.8829116374e-02    1.0189646094e+05
    2.8847465292e-02    1.0189707031e+05
    2.8865773231e-02    1.0189891406e+05
    2.8884036466e-02    1.0190271875e+05
    2.8902258724e-02    1.0191178125e+05
    2.8920443729e-02    1.0190953906e+05
    2.8938598931e-02    1.0190674219e+05
    2.8956729919e-02    1.0190771875e+05
    2.8974846005e-02    1.0190684375e+05
    2.8992949054e-02    1.0190343750e+05
    2.9011042789e-02    1.0190462500e+05
    2.9029129073e-02    1.0190874219e+05
    2.9047204182e-02    1.0191427344e+05
    2.9065268114e-02    1.0191596875e+05
    2.9083315283e-02    1.0191764844e+05
    2.9101338238e-02    1.0191858594e+05
    2.9119335115e-02    1.0191140625e+05
    2.9137304053e-02    1.0192133594e+05
    2.9155241325e-02    1.0192325781e+05
    2.9173148796e-02    1.0192455469e+05
    2.9191024601e-02    1.0191889844e+05
    2.9208874330e-02    1.0192750781e+05
    2.9226697981e-02    1.0192830469e+05
    2.9244501144e-02    1.0193089844e+05
    2.9262285680e-02    1.0193236719e+05
    2.9280053452e-02    1.0193165625e+05
    2.9297806323e-02    1.0193550000e+05
    2.9315544292e-02    1.0193835156e+05
    2.9333265498e-02    1.0194015625e+05
    2.9350971803e-02    1.0194205469e+05
    2.9368655756e-02    1.0194403125e+05
    2.9386319220e-02    1.0194610156e+05
    2.9403960332e-02    1.0194825000e+05
    2.9421577230e-02    1.0195046094e+05
    2.9439168051e-02    1.0195263281e+05
    2.9456734657e-02    1.0195477344e+05
    2.9474277049e-02    1.0195682031e+05
    2.9491795227e-02    1.0195822656e+05
    2.9509292915e-02    1.0195950000e+05
    2.9526771978e-02    1.0196121875e+05
    2.9544232413e-02    1.0196168750e+05
    2.9561674222e-02    1.0196374219e+05
    2.9579099268e-02    1.0195822656e+05
    2.9596509412e-02    1.0195797656e+05
    2.9613900930e-02    1.0196810156e+05
    2.9631273821e-02    1.0196989844e+05
    2.9648626223e-02    1.0197231250e+05
    2.9665958136e-02    1.0197413281e+05
    2.9683271423e-02    1.0197416406e+05
    2.9700560495e-02    1.0197178125e+05
    2.9717829078e-02    1.0197908594e+05
    2.9735075310e-02    1.0197652344e+05
    2.9752301052e-02    1.0198352344e+05
    2.9769508168e-02    1.0198407031e+05
    2.9786696658e-02    1.0198439844e+05
    2.9803866521e-02    1.0197917969e+05
    2.9821017757e-02    1.0198763281e+05
    2.9838152230e-02    1.0198456250e+05
    2.9855269939e-02    1.0199306250e+05
    2.9872370884e-02    1.0199494531e+05
    2.9889453202e-02    1.0199211719e+05
    2.9906518757e-02    1.0198909375e+05
    2.9923565686e-02    1.0200049219e+05
    2.9940593988e-02    1.0200294531e+05
    2.9957601801e-02    1.0199722656e+05
    2.9974590987e-02    1.0199913281e+05
    2.9991561547e-02    1.0200602344e+05
    3.0008511618e-02    1.0200140625e+05
    3.0025444925e-02    1.0200253906e+05
    3.0042361468e-02    1.0201053906e+05
    3.0059259385e-02    1.0201524219e+05
    3.0076142401e-02    1.0200661719e+05
    3.0093006790e-02    1.0200880469e+05
    3.0109854415e-02    1.0201203906e+05
    3.0126683414e-02    1.0201077344e+05
    3.0143497512e-02    1.0201757031e+05
    3.0160292983e-02    1.0201378906e+05
    3.0177071691e-02    1.0201584375e+05
    3.0193833634e-02    1.0201733594e+05
    3.0210576952e-02    1.0201822656e+05
    3.0227303505e-02    1.0202025000e+05
    3.0244011432e-02    1.0202172656e+05
    3.0260702595e-02    1.0202427344e+05
    3.0277376994e-02    1.0202447656e+05
    3.0294034630e-02    1.0202574219e+05
    3.0310675502e-02    1.0202697656e+05
    3.0327299610e-02    1.0202818750e+05
    3.0343905091e-02    1.0202939844e+05
    3.0360495672e-02    1.0203059375e+05
    3.0377071351e-02    1.0203131250e+05
    3.0393628404e-02    1.0203281250e+05
    3.0410168692e-02    1.0203507031e+05
    3.0426690355e-02    1.0204356250e+05
    3.0443195254e-02    1.0204062500e+05
    3.0459685251e-02    1.0203996094e+05
    3.0476156622e-02    1.0204144531e+05
    3.0492611229e-02    1.0204228125e+05
    3.0509050936e-02    1.0204364844e+05
    3.0525473878e-02    1.0204497656e+05
    3.0541881919e-02    1.0204633594e+05
    3.0558273196e-02    1.0204766406e+05
    3.0574647710e-02    1.0204943750e+05
    3.0591005459e-02    1.0205058594e+05
    3.0607348308e-02    1.0205087500e+05
    3.0623674393e-02    1.0204400781e+05
    3.0639985576e-02    1.0204178125e+05
    3.0656279996e-02    1.0204171094e+05
    3.0672557652e-02    1.0204088281e+05
    3.0688818544e-02    1.0203521875e+05
    3.0705062672e-02    1.0203350781e+05
    3.0721291900e-02    1.0202877344e+05
    3.0737506226e-02    1.0202707031e+05
    3.0753703788e-02    1.0201691406e+05
    3.0769886449e-02    1.0201497656e+05
    3.0786054209e-02    1.0201227344e+05
    3.0802207068e-02    1.0200772656e+05
    3.0818343163e-02    1.0200302344e+05
    3.0834466219e-02    1.0199568750e+05
    3.0850572512e-02    1.0199518750e+05
    3.0866663903e-02    1.0198946875e+05
    3.0882738531e-02    1.0198625000e+05
    3.0898798257e-02    1.0198207031e+05
    3.0914843082e-02    1.0196885156e+05
    3.0930871144e-02    1.0196446094e+05
    3.0946886167e-02    1.0195987500e+05
    3.0962884426e-02    1.0195059375e+05
    3.0978867784e-02    1.0194144531e+05
    3.0994836241e-02    1.0194624219e+05
    3.1010789797e-02    1.0194228125e+05
    3.1026728451e-02    1.0194471875e+05
    3.1042650342e-02    1.0194578906e+05
    3.1058559194e-02    1.0195217969e+05
    3.1074455008e-02    1.0195640625e+05
    3.1090334058e-02    1.0195909375e+05
    3.1106200069e-02    1.0195997656e+05
    3.1122051179e-02    1.0196163281e+05
    3.1137887388e-02    1.0196458594e+05
    3.1153710559e-02    1.0196450781e+05
    3.1169516966e-02    1.0197016406e+05
    3.1185310334e-02    1.0197619531e+05
    3.1201090664e-02    1.0198235156e+05
    3.1216854230e-02    1.0198950781e+05
    3.1232602894e-02    1.0199633594e+05
    3.1248336658e-02    1.0200393750e+05
    3.1264055520e-02    1.0200747656e+05
    3.1279761344e-02    1.0202039844e+05
    3.1295452267e-02    1.0202417969e+05
    3.1311132014e-02    1.0202540625e+05
    3.1326796860e-02    1.0202197656e+05
    3.1342446804e-02    1.0202525781e+05
    3.1358085573e-02    1.0202865625e+05
    3.1373709440e-02    1.0204135156e+05
    3.1389318407e-02    1.0204614844e+05
    3.1404916197e-02    1.0204859375e+05
    3.1420499086e-02    1.0204414844e+05
    3.1436067075e-02    1.0204771094e+05
    3.1451620162e-02    1.0205822656e+05
    3.1467158347e-02    1.0206021875e+05
    3.1482685357e-02    1.0206003906e+05
    3.1498193741e-02    1.0206372656e+05
    3.1513694674e-02    1.0206858594e+05
    3.1529176980e-02    1.0207228906e+05
    3.1544648111e-02    1.0207716406e+05
    3.1560108066e-02    1.0208086719e+05
    3.1575553119e-02    1.0208452344e+05
    3.1590986997e-02    1.0208808594e+05
    3.1606405973e-02    1.0208910156e+05
    3.1621813774e-02    1.0208992969e+05
    3.1637206674e-02    1.0208847656e+05
    3.1652588397e-02    1.0209130469e+05
    3.1667951494e-02    1.0209513281e+05
    3.1683307141e-02    1.0209647656e+05
    3.1698647887e-02    1.0209538281e+05
    3.1713977456e-02    1.0209208594e+05
    3.1729292125e-02    1.0209314844e+05
    3.1744595617e-02    1.0209560156e+05
    3.1759884208e-02    1.0208685156e+05
    3.1775161624e-02    1.0208753125e+05
    3.1790427864e-02    1.0208859375e+05
    3.1805675477e-02    1.0208841406e+05
    3.1820915639e-02    1.0208850781e+05
    3.1836140901e-02    1.0207978125e+05
    3.1851354986e-02    1.0207943750e+05
    3.1866557896e-02    1.0207837500e+05
    3.1881745905e-02    1.0207775781e+05
    3.1896922737e-02    1.0207760156e+05
    3.1912088394e-02    1.0206868750e+05
    3.1927239150e-02    1.0206525000e+05
    3.1942378730e-02    1.0206414844e+05
    3.1957507133e-02    1.0206253906e+05
    3.1972620636e-02    1.0207084375e+05
    3.1987726688e-02    1.0207010156e+05
    3.2002814114e-02    1.0206980469e+05
    3.2017890364e-02    1.0206069531e+05
    3.2032959163e-02    1.0205828906e+05
    3.2048013061e-02    1.0205685156e+05
    3.2063052058e-02    1.0205535156e+05
    3.2078083605e-02    1.0205378125e+05
    3.2093103975e-02    1.0205097656e+05
    3.2108109444e-02    1.0204925000e+05
    3.2123107463e-02    1.0204511719e+05
    3.2138090581e-02    1.0204027344e+05
    3.2153062522e-02    1.0203811719e+05
    3.2168023288e-02    1.0204065625e+05
    3.2182972878e-02    1.0203889844e+05
    3.2197911292e-02    1.0203724219e+05
    3.2212834805e-02    1.0203517969e+05
    3.2227750868e-02    1.0203375781e+05
    3.2242652029e-02    1.0203246094e+05
    3.2257542014e-02    1.0203352344e+05
    3.2272424549e-02    1.0203471875e+05
    3.2287292182e-02    1.0203849219e+05
    3.2302148640e-02    1.0203833594e+05
    3.2316997647e-02    1.0203824219e+05
    3.2331831753e-02    1.0203759375e+05
    3.2346658409e-02    1.0203700000e+05
    3.2361470163e-02    1.0203643750e+05
    3.2376270741e-02    1.0203583594e+05
    3.2391063869e-02    1.0203516406e+05
    3.2405842096e-02    1.0203327344e+05
    3.2420612872e-02    1.0203361719e+05
    3.2435368747e-02    1.0203046875e+05
    3.2450113446e-02    1.0203203125e+05
    3.2464850694e-02    1.0203133594e+05
    3.2479573041e-02    1.0203083594e+05
    3.2494287938e-02    1.0202994531e+05
    3.2508991659e-02    1.0203433594e+05
    3.2523684204e-02    1.0203983594e+05
    3.2538365573e-02    1.0204032031e+05
    3.2553035766e-02    1.0204102344e+05
    3.2567698509e-02    1.0204191406e+05
    3.2582346350e-02    1.0204294531e+05
    3.2596986741e-02    1.0204460156e+05
    3.2611619681e-02    1.0204634375e+05
    3.2626237720e-02    1.0204691406e+05
    3.2640848309e-02    1.0204803125e+05
    3.2655447721e-02    1.0204911719e+05
    3.2670035958e-02    1.0205019531e+05
    3.2684613019e-02    1.0205064844e+05
    3.2699178904e-02    1.0205218750e+05
    3.2713737339e-02    1.0205253906e+05
    3.2728284597e-02    1.0205338281e+05
    3.2742820680e-02    1.0205411719e+05
    3.2757349312e-02    1.0205471875e+05
    3.2771866769e-02    1.0205521094e+05
    3.2786373049e-02    1.0205103906e+05
    3.2800871879e-02    1.0205235156e+05
    3.2815355808e-02    1.0204769531e+05
    3.2829832286e-02    1.0204641406e+05
    3.2844301313e-02    1.0204658594e+05
    3.2858755440e-02    1.0204540625e+05
    3.2873202115e-02    1.0203887500e+05
    3.2887637615e-02    1.0203335156e+05
    3.2902065665e-02    1.0203803906e+05
    3.2916482538e-02    1.0203946094e+05
    3.2930891961e-02    1.0203863281e+05
    3.2945290208e-02    1.0203837500e+05
    3.2959677279e-02    1.0203364844e+05
    3.2974056900e-02    1.0203039844e+05
    3.2988425344e-02    1.0202702344e+05
    3.3002786338e-02    1.0202591406e+05
    3.3017136157e-02    1.0202352344e+05
    3.3031478524e-02    1.0202325000e+05
    3.3045809716e-02    1.0202168750e+05
    3.3060129732e-02    1.0201485156e+05
    3.3074442297e-02    1.0200871094e+05
    3.3088747412e-02    1.0200658594e+05
    3.3103041351e-02    1.0200389844e+05
    3.3117324114e-02    1.0200247656e+05
    3.3131599426e-02    1.0200642969e+05
    3.3145863563e-02    1.0200781250e+05
    3.3160120249e-02    1.0200584375e+05
    3.3174365759e-02    1.0200447656e+05
    3.3188603818e-02    1.0200308594e+05
    3.3202830702e-02    1.0200164844e+05
    3.3217050135e-02    1.0200128906e+05
    3.3231258392e-02    1.0199975000e+05
    3.3245459199e-02    1.0199821875e+05
    3.3259648830e-02    1.0199682031e+05
    3.3273831010e-02    1.0199550781e+05
    3.3288005739e-02    1.0199433594e+05
    3.3302169293e-02    1.0199781250e+05
    3.3316325396e-02    1.0199821875e+05
    3.3330474049e-02    1.0200244531e+05
    3.3344611526e-02    1.0200222656e+05
    3.3358741552e-02    1.0200332031e+05
    3.3372864127e-02    1.0200569531e+05
    3.3386975527e-02    1.0200825000e+05
    3.3401079476e-02    1.0200750000e+05
    3.3415172249e-02    1.0200687500e+05
    3.3429257572e-02    1.0200866406e+05
    3.3443335444e-02    1.0201396094e+05
    3.3457405865e-02    1.0201700781e+05
    3.3471468836e-02    1.0201896094e+05
    3.3485524356e-02    1.0201053906e+05
    3.3499568701e-02    1.0201071875e+05
    3.3513605595e-02    1.0201318750e+05
    3.3527631313e-02    1.0201619531e+05
    3.3541653305e-02    1.0202112500e+05
    3.3555664122e-02    1.0202014844e+05
    3.3569667488e-02    1.0201403125e+05
    3.3583663404e-02    1.0201946875e+05
    3.3597648144e-02    1.0202303125e+05
    3.3611625433e-02    1.0202196875e+05
    3.3625595272e-02    1.0201822656e+05
    3.3639557660e-02    1.0202003125e+05
    3.3653512597e-02    1.0201899219e+05
    3.3667460084e-02    1.0202369531e+05
    3.3681396395e-02    1.0201831250e+05
    3.3695328981e-02    1.0201971094e+05
    3.3709254116e-02    1.0201967969e+05
    3.3723168075e-02    1.0201371094e+05
    3.3737078309e-02    1.0200835156e+05
    3.3750977367e-02    1.0200739844e+05
    3.3764872700e-02    1.0200628906e+05
    3.3778760582e-02    1.0200510156e+05
    3.3792637289e-02    1.0200280469e+05
    3.3806510270e-02    1.0200161719e+05
    3.3820372075e-02    1.0200093750e+05
    3.3834230155e-02    1.0199508594e+05
    3.3848077059e-02    1.0198907031e+05
    3.3861916512e-02    1.0198705469e+05
    3.3875752240e-02    1.0199186719e+05
    3.3889576793e-02    1.0199230469e+05
    3.3903393894e-02    1.0198988281e+05
    3.3917203546e-02    1.0198974219e+05
    3.3931009471e-02    1.0198840625e+05
    3.3944804221e-02    1.0198252344e+05
    3.3958595246e-02    1.0198147656e+05
    3.3972378820e-02    1.0197503906e+05
    3.3986151218e-02    1.0197258594e+05
    3.3999919891e-02    1.0197052344e+05
    3.4013681114e-02    1.0196840625e+05
    3.4027434886e-02    1.0196510156e+05
    3.4041177481e-02    1.0196300000e+05
    3.4054916352e-02    1.0196091406e+05
    3.4068647772e-02    1.0195878125e+05
    3.4082375467e-02    1.0195658594e+05
    3.4096091986e-02    1.0195477344e+05
    3.4109804779e-02    1.0195164844e+05
    3.4123510122e-02    1.0194549219e+05
    3.4137208015e-02    1.0193953906e+05
    3.4150898457e-02    1.0194046875e+05
    3.4164581448e-02    1.0194027344e+05
    3.4178260714e-02    1.0194132031e+05
    3.4191932529e-02    1.0193910156e+05
    3.4205596894e-02    1.0193691406e+05
    3.4219253808e-02    1.0193478906e+05
    3.4232903272e-02    1.0193272656e+05
    3.4246545285e-02    1.0193068750e+05
    3.4260183573e-02    1.0192869531e+05
    3.4273810685e-02    1.0192675000e+05
    3.4287434071e-02    1.0192546094e+05
    3.4301050007e-02    1.0192531250e+05
    3.4314658493e-02    1.0192353906e+05
    3.4328263253e-02    1.0192064844e+05
    3.4341860563e-02    1.0191896094e+05
    3.4355450422e-02    1.0191789844e+05
    3.4369036555e-02    1.0191693750e+05
    3.4382611513e-02    1.0191499219e+05
    3.4396182746e-02    1.0191441406e+05
    3.4409742802e-02    1.0191822656e+05
    3.4423299134e-02    1.0192250781e+05
    3.4436848015e-02    1.0192188281e+05
    3.4450393170e-02    1.0192166406e+05
    3.4463927150e-02    1.0192067969e+05
    3.4477461129e-02    1.0191025781e+05
    3.4490987659e-02    1.0190778125e+05
    3.4504506737e-02    1.0190644531e+05
    3.4518022090e-02    1.0190612500e+05
    3.4531529993e-02    1.0190468750e+05
    3.4545030445e-02    1.0190257031e+05
    3.4558523446e-02    1.0190047656e+05
    3.4572008997e-02    1.0189668750e+05
    3.4585487098e-02    1.0189743750e+05
    3.4598957747e-02    1.0189483594e+05
    3.4612424672e-02    1.0189339844e+05
    3.4625884145e-02    1.0189202344e+05
    3.4639336169e-02    1.0188944531e+05
    3.4652780741e-02    1.0188800781e+05
    3.4666225314e-02    1.0188537500e+05
    3.4679658711e-02    1.0188392969e+05
    3.4693088382e-02    1.0188237500e+05
    3.4706510603e-02    1.0188082031e+05
    3.4719929099e-02    1.0187916406e+05
    3.4733340144e-02    1.0187794531e+05
    3.4746743739e-02    1.0187592969e+05
    3.4760143608e-02    1.0186682031e+05
    3.4773536026e-02    1.0186083594e+05
    3.4786924720e-02    1.0185887500e+05
    3.4800305963e-02    1.0185862500e+05
    3.4813679755e-02    1.0185517969e+05
    3.4827046096e-02    1.0186214844e+05
    3.4840408713e-02    1.0185785156e+05
    3.4853763878e-02    1.0184952344e+05
    3.4867111593e-02    1.0184821094e+05
    3.4880455583e-02    1.0185089844e+05
    3.4893795848e-02    1.0185337500e+05
    3.4907124937e-02    1.0185234375e+05
    3.4920454025e-02    1.0184605469e+05
    3.4933775663e-02    1.0183992969e+05
    3.4947093576e-02    1.0184285156e+05
    3.4960404038e-02    1.0184464844e+05
    3.4973710775e-02    1.0183710156e+05
    3.4987010062e-02    1.0183528906e+05
endcurve
