Curveplot
LS-DYNA keyword deck by LS-PrePost                          
Time
Pressure
Defined Connection
Pressure @ 78 #pts=1745
* Minval=     9.9856523438e+04 at time=         0.0173399933
* Maxval=     1.6684809375e+05 at time=         0.0075063589
    0.0000000000e+00    9.9998710938e+04
    3.3812357287e-05    9.9998710938e+04
    6.1326652940e-05    9.9996617188e+04
    8.9102875791e-05    1.0000127344e+05
    1.1682785407e-04    9.9999226562e+04
    1.4461828687e-04    9.9997226562e+04
    1.7236733402e-04    1.0000218750e+05
    2.0016246708e-04    1.0000043750e+05
    2.2795486439e-04    1.0000090625e+05
    2.5574557367e-04    1.0000122656e+05
    2.8353667585e-04    1.0000150781e+05
    3.1133697485e-04    1.0000166406e+05
    3.3912662184e-04    9.9999335938e+04
    3.6691734567e-04    9.9999039062e+04
    3.9470891352e-04    9.9999000000e+04
    4.2249175021e-04    1.0000127344e+05
    4.5027161832e-04    1.0000136719e+05
    4.7804549104e-04    1.0000046094e+05
    5.0581363030e-04    1.0000186719e+05
    5.3357944125e-04    1.0000215625e+05
    5.6134146871e-04    9.9997375000e+04
    5.8909942163e-04    9.9999148438e+04
    6.1685312539e-04    1.0000091406e+05
    6.4460188150e-04    9.9999632812e+04
    6.7234638846e-04    9.9998335938e+04
    7.0008635521e-04    1.0000306250e+05
    7.2782178177e-04    1.0000316406e+05
    7.5555208605e-04    9.9998523438e+04
    7.8327720985e-04    9.9998343750e+04
    8.1099680392e-04    1.0000043750e+05
    8.3871174138e-04    1.0000025781e+05
    8.6642213864e-04    1.0000031250e+05
    8.9412782108e-04    1.0000050000e+05
    9.2182843946e-04    1.0000078906e+05
    9.4952445943e-04    1.0000094531e+05
    9.7721535712e-04    9.9999718750e+04
    1.0049008997e-03    9.9993867188e+04
    1.0325826006e-03    1.0000297656e+05
    1.0602590628e-03    1.0000322656e+05
    1.0879321489e-03    9.9999148438e+04
    1.1155996472e-03    1.0000164844e+05
    1.1432634201e-03    1.0000168750e+05
    1.1709230021e-03    1.0000150781e+05
    1.1985785095e-03    1.0000127344e+05
    1.2262313394e-03    1.0000118750e+05
    1.2538790470e-03    1.0000102344e+05
    1.2815232622e-03    1.0000087500e+05
    1.3091630535e-03    9.9994523438e+04
    1.3368004002e-03    1.0000327344e+05
    1.3644339051e-03    1.0000827344e+05
    1.3920635683e-03    1.0002416406e+05
    1.4196902048e-03    1.0005300781e+05
    1.4473132323e-03    1.0010905469e+05
    1.4749332331e-03    1.0019607031e+05
    1.5025498578e-03    1.0032775781e+05
    1.5301633393e-03    1.0052210156e+05
    1.5577742597e-03    1.0077121094e+05
    1.5853822697e-03    1.0109278906e+05
    1.6129877185e-03    1.0146706250e+05
    1.6405890929e-03    1.0186309375e+05
    1.6681876732e-03    1.0224775781e+05
    1.6957829939e-03    1.0259921875e+05
    1.7233766848e-03    1.0287333594e+05
    1.7509678146e-03    1.0305541406e+05
    1.7785291420e-03    1.0313752344e+05
    1.8060547300e-03    1.0313340625e+05
    1.8335470231e-03    1.0305383594e+05
    1.8610082334e-03    1.0291046875e+05
    1.8884401070e-03    1.0275199219e+05
    1.9158447394e-03    1.0258050781e+05
    1.9432241097e-03    1.0242684375e+05
    1.9705800805e-03    1.0229403906e+05
    1.9979148638e-03    1.0221594531e+05
    2.0252298564e-03    1.0218672656e+05
    2.0525271539e-03    1.0221397656e+05
    2.0798076876e-03    1.0227474219e+05
    2.1070730872e-03    1.0234653125e+05
    2.1343247499e-03    1.0242191406e+05
    2.1615643054e-03    1.0248016406e+05
    2.1887931507e-03    1.0252772656e+05
    2.2160108201e-03    1.0254190625e+05
    2.2432196420e-03    1.0253746875e+05
    2.2704207804e-03    1.0251414844e+05
    2.2976147011e-03    1.0247843750e+05
    2.3248014040e-03    1.0244492969e+05
    2.3519827519e-03    1.0241460156e+05
    2.3791582789e-03    1.0239571875e+05
    2.4063293822e-03    1.0238546094e+05
    2.4334960617e-03    1.0238900781e+05
    2.4606597144e-03    1.0239621875e+05
    2.4878205732e-03    1.0240778906e+05
    2.5149781723e-03    1.0243388281e+05
    2.5421329774e-03    1.0244282031e+05
    2.5692859199e-03    1.0244669531e+05
    2.5964374654e-03    1.0244010156e+05
    2.6235871483e-03    1.0243742969e+05
    2.6507352013e-03    1.0243528906e+05
    2.6778825559e-03    1.0243182031e+05
    2.7050296776e-03    1.0242157031e+05
    2.7321761008e-03    1.0242025000e+05
    2.7593218256e-03    1.0241803125e+05
    2.7864677832e-03    1.0242165625e+05
    2.8136142064e-03    1.0242378906e+05
    2.8407603968e-03    1.0242632031e+05
    2.8679079842e-03    1.0244265625e+05
    2.8950548731e-03    1.0246038281e+05
    2.9222022276e-03    1.0249277344e+05
    2.9493502807e-03    1.0252986719e+05
    2.9764990322e-03    1.0257353906e+05
    3.0036487151e-03    1.0264057031e+05
    3.0307997949e-03    1.0271771094e+05
    3.0579508748e-03    1.0281363281e+05
    3.0851035845e-03    1.0291922656e+05
    3.1122572254e-03    1.0302708594e+05
    3.1394117977e-03    1.0311697656e+05
    3.1665677670e-03    1.0319493750e+05
    3.1937246677e-03    1.0325958594e+05
    3.2208829653e-03    1.0330160156e+05
    3.2480424270e-03    1.0331378125e+05
    3.2752046827e-03    1.0329193750e+05
    3.2952371985e-03    1.0325675781e+05
    3.3145032357e-03    1.0321735156e+05
    3.3336398192e-03    1.0318064844e+05
    3.3528339118e-03    1.0314033594e+05
    3.3720366191e-03    1.0310378906e+05
    3.3912549261e-03    1.0306459375e+05
    3.4104890656e-03    1.0302296094e+05
    3.4297339153e-03    1.0297903906e+05
    3.4486323129e-03    1.0293414844e+05
    3.4671388566e-03    1.0288040625e+05
    3.4854323603e-03    1.0283307031e+05
    3.5036695190e-03    1.0277221094e+05
    3.5219141282e-03    1.0270458594e+05
    3.5401545465e-03    1.0262818750e+05
    3.5583588760e-03    1.0255725000e+05
    3.5765271168e-03    1.0248915625e+05
    3.5946895368e-03    1.0242608594e+05
    3.6139658187e-03    1.0237710156e+05
    3.6330535077e-03    1.0232557031e+05
    3.6521453876e-03    1.0228992969e+05
    3.6699753255e-03    1.0225341406e+05
    3.6875614896e-03    1.0222941406e+05
    3.7050142419e-03    1.0220752344e+05
    3.7224807311e-03    1.0219258594e+05
    3.7400643341e-03    1.0217999219e+05
    3.7577797193e-03    1.0216960156e+05
    3.7755726371e-03    1.0216114844e+05
    3.7933769636e-03    1.0214764844e+05
    3.8111612666e-03    1.0214035156e+05
    3.8289318327e-03    1.0213228906e+05
    3.8467168342e-03    1.0212331250e+05
    3.8645383902e-03    1.0211322656e+05
    3.8824023213e-03    1.0210433594e+05
    3.9002960548e-03    1.0209741406e+05
    3.9182156324e-03    1.0209119531e+05
    3.9361710660e-03    1.0207616406e+05
    3.9541716687e-03    1.0206097656e+05
    3.9733103476e-03    1.0204202344e+05
    3.9924201556e-03    1.0201546875e+05
    4.0104058571e-03    1.0199794531e+05
    4.0284004062e-03    1.0199034375e+05
    4.0464363992e-03    1.0197450781e+05
    4.0656095371e-03    1.0196888281e+05
    4.0847789496e-03    1.0196461719e+05
    4.1039343923e-03    1.0195900781e+05
    4.1219722480e-03    1.0195758594e+05
    4.1400394402e-03    1.0194749219e+05
    4.1591953486e-03    1.0194333594e+05
    4.1784178466e-03    1.0193460156e+05
    4.1976389475e-03    1.0192486719e+05
    4.2168586515e-03    1.0192208594e+05
    4.2360713705e-03    1.0190925000e+05
    4.2552771047e-03    1.0189877344e+05
    4.2744791135e-03    1.0189031250e+05
    4.2936825193e-03    1.0187885156e+05
    4.3128933758e-03    1.0186659375e+05
    4.3321144767e-03    1.0184414844e+05
    4.3513495475e-03    1.0183288281e+05
    4.3705995195e-03    1.0182246875e+05
    4.3898657896e-03    1.0180449219e+05
    4.4091497548e-03    1.0177942969e+05
    4.4284537435e-03    1.0175342969e+05
    4.4477786869e-03    1.0171885156e+05
    4.4671236537e-03    1.0167696094e+05
    4.4864914380e-03    1.0162002344e+05
    4.5058806427e-03    1.0156216406e+05
    4.5252908021e-03    1.0149461719e+05
    4.5447219163e-03    1.0140552344e+05
    4.5641721226e-03    1.0131083594e+05
    4.5836409554e-03    1.0121417969e+05
    4.6031279489e-03    1.0110146094e+05
    4.6226321720e-03    1.0098496094e+05
    4.6421540901e-03    1.0086400000e+05
    4.6616927721e-03    1.0073821875e+05
    4.6812482178e-03    1.0061689844e+05
    4.7008208930e-03    1.0050418750e+05
    4.7204112634e-03    1.0039471094e+05
    4.7400193289e-03    1.0030538281e+05
    4.7596455552e-03    1.0023196875e+05
    4.7792894766e-03    1.0017868750e+05
    4.7989510931e-03    1.0014621094e+05
    4.8186304048e-03    1.0014330469e+05
    4.8383255489e-03    1.0016305469e+05
    4.8580355942e-03    1.0019291406e+05
    4.8777610064e-03    1.0023575000e+05
    4.8975008540e-03    1.0028742969e+05
    4.9172551371e-03    1.0034189844e+05
    4.9370229244e-03    1.0040618750e+05
    4.9568060786e-03    1.0047166406e+05
    4.9766036682e-03    1.0053415625e+05
    4.9964170903e-03    1.0058246094e+05
    5.0162458792e-03    1.0061669531e+05
    5.0360900350e-03    1.0064230469e+05
    5.0559476949e-03    1.0066537500e+05
    5.0758207217e-03    1.0067441406e+05
    5.0957072526e-03    1.0067453906e+05
    5.1156077534e-03    1.0067303906e+05
    5.1355226897e-03    1.0066960156e+05
    5.1554525271e-03    1.0065677344e+05
    5.1753963344e-03    1.0063625781e+05
    5.1953555085e-03    1.0061677344e+05
    5.2153295837e-03    1.0059928906e+05
    5.2353194915e-03    1.0058256250e+05
    5.2553247660e-03    1.0056711719e+05
    5.2753463387e-03    1.0056288281e+05
    5.2953832783e-03    1.0057046094e+05
    5.3154369816e-03    1.0057614844e+05
    5.3355065174e-03    1.0058839844e+05
    5.3555918857e-03    1.0059314844e+05
    5.3756926209e-03    1.0059903125e+05
    5.3958082572e-03    1.0061467969e+05
    5.4159392603e-03    1.0062639844e+05
    5.4360851645e-03    1.0063822656e+05
    5.4562464356e-03    1.0065653125e+05
    5.4764230736e-03    1.0066053125e+05
    5.4966160096e-03    1.0066324219e+05
    5.5168238468e-03    1.0066478906e+05
    5.5370470509e-03    1.0066546094e+05
    5.5572865531e-03    1.0066789844e+05
    5.5775423534e-03    1.0067471094e+05
    5.5978130549e-03    1.0067455469e+05
    5.6181000546e-03    1.0067178906e+05
    5.6384028867e-03    1.0067333594e+05
    5.6587206200e-03    1.0067696875e+05
    5.6790532544e-03    1.0067647656e+05
    5.6994007900e-03    1.0067638281e+05
    5.7197632268e-03    1.0068117969e+05
    5.7401410304e-03    1.0068278906e+05
    5.7605337352e-03    1.0068689844e+05
    5.7809422724e-03    1.0069022656e+05
    5.8013652451e-03    1.0070322656e+05
    5.8218040504e-03    1.0069833594e+05
    5.8422577567e-03    1.0070257031e+05
    5.8627268299e-03    1.0071713281e+05
    5.8832112700e-03    1.0071685156e+05
    5.9037101455e-03    1.0071321875e+05
    5.9242248535e-03    1.0072421094e+05
    5.9447535314e-03    1.0073403906e+05
    5.9641525149e-03    1.0073465625e+05
    5.9830932878e-03    1.0074077344e+05
    6.0020405799e-03    1.0074255469e+05
    6.0210367665e-03    1.0074917969e+05
    6.0400799848e-03    1.0076331250e+05
    6.0591096990e-03    1.0077343750e+05
    6.0781282373e-03    1.0078155469e+05
    6.0972142965e-03    1.0078049219e+05
    6.1162756756e-03    1.0078827344e+05
    6.1353649944e-03    1.0078902344e+05
    6.1544459313e-03    1.0079413281e+05
    6.1734300107e-03    1.0080725000e+05
    6.1924448237e-03    1.0081572656e+05
    6.2115197070e-03    1.0082085156e+05
    6.2306127511e-03    1.0082633594e+05
    6.2497169711e-03    1.0084150000e+05
    6.2688281760e-03    1.0084586719e+05
    6.2879407778e-03    1.0086209375e+05
    6.3070552424e-03    1.0088128906e+05
    6.3261794858e-03    1.0088984375e+05
    6.3453060575e-03    1.0090827344e+05
    6.3644465990e-03    1.0092771094e+05
    6.3835908659e-03    1.0094821875e+05
    6.4027444459e-03    1.0096966406e+05
    6.4219115302e-03    1.0099177344e+05
    6.4410855994e-03    1.0100493750e+05
    6.4602680504e-03    1.0101800000e+05
    6.4794607460e-03    1.0102402344e+05
    6.4986641519e-03    1.0103661719e+05
    6.5178787336e-03    1.0105597656e+05
    6.5371058881e-03    1.0106146094e+05
    6.5563363023e-03    1.0106871875e+05
    6.5755699761e-03    1.0107046094e+05
    6.5948092379e-03    1.0107566406e+05
    6.6140629351e-03    1.0107397656e+05
    6.6333152354e-03    1.0107096875e+05
    6.6525745206e-03    1.0106580469e+05
    6.6718445159e-03    1.0106550781e+05
    6.6911154427e-03    1.0106678125e+05
    6.7104012705e-03    1.0106296875e+05
    6.7296870984e-03    1.0106578125e+05
    6.7489854991e-03    1.0107172656e+05
    6.7682852969e-03    1.0107159375e+05
    6.7875892855e-03    1.0106977344e+05
    6.8069072440e-03    1.0107096094e+05
    6.8262196146e-03    1.0106140625e+05
    6.8455408327e-03    1.0106403906e+05
    6.8648783490e-03    1.0106543750e+05
    6.8842126057e-03    1.0105853906e+05
    6.9035501219e-03    1.0105947656e+05
    6.9228983484e-03    1.0106256250e+05
    6.9422605447e-03    1.0105877344e+05
    6.9616222754e-03    1.0106164844e+05
    6.9809844717e-03    1.0105971094e+05
    7.0003494620e-03    1.0105061719e+05
    7.0197195746e-03    1.0105033594e+05
    7.0390999317e-03    1.0105213281e+05
    7.0584909990e-03    1.0105146875e+05
    7.0778946392e-03    1.0104828906e+05
    7.0973108523e-03    1.0104615625e+05
    7.1167377755e-03    1.0104767969e+05
    7.1361698210e-03    1.0104752344e+05
    7.1556069888e-03    1.0105628125e+05
    7.1750483476e-03    1.0107438281e+05
    7.1944966912e-03    1.0109917969e+05
    7.2139529511e-03    1.0114617969e+05
    7.2334166616e-03    1.0123771094e+05
    7.2528840974e-03    1.0142608594e+05
    7.2723543271e-03    1.0181236719e+05
    7.2918278165e-03    1.0257237500e+05
    7.3113050312e-03    1.0402340625e+05
    7.3307845742e-03    1.0663759375e+05
    7.3502692394e-03    1.1100732031e+05
    7.3697618209e-03    1.1762807031e+05
    7.3892641813e-03    1.2656566406e+05
    7.4087800458e-03    1.3712242188e+05
    7.4282912537e-03    1.4782609375e+05
    7.4477996677e-03    1.5694281250e+05
    7.4673094787e-03    1.6321456250e+05
    7.4868267402e-03    1.6634632812e+05
    7.5063589029e-03    1.6684809375e+05
    7.5258887373e-03    1.6567981250e+05
    7.5454111211e-03    1.6376815625e+05
    7.5649353676e-03    1.6189703125e+05
    7.5844703242e-03    1.6036182812e+05
    7.6040057465e-03    1.5918840625e+05
    7.6235276647e-03    1.5823159375e+05
    7.6430505142e-03    1.5726310938e+05
    7.6625877991e-03    1.5611695312e+05
    7.6821087860e-03    1.5472967188e+05
    7.7016241848e-03    1.5311884375e+05
    7.7211544849e-03    1.5137328125e+05
    7.7406810597e-03    1.4959026562e+05
    7.7602043748e-03    1.4785890625e+05
    7.7797495760e-03    1.4623915625e+05
    7.7992938459e-03    1.4473342188e+05
    7.8188432381e-03    1.4332167188e+05
    7.8384252265e-03    1.4197245312e+05
    7.8580006957e-03    1.4065214062e+05
    7.8775910661e-03    1.3934498438e+05
    7.8972103074e-03    1.3804900000e+05
    7.9168286175e-03    1.3678057812e+05
    7.9364804551e-03    1.3555082812e+05
    7.9561360180e-03    1.3436690625e+05
    7.9758102074e-03    1.3325054688e+05
    7.9955114052e-03    1.3220598438e+05
    8.0152126029e-03    1.3123196875e+05
    8.0349491909e-03    1.3032150781e+05
    8.0546662211e-03    1.2947108594e+05
    8.0743944272e-03    1.2866691406e+05
    8.0941170454e-03    1.2791146094e+05
    8.1138620153e-03    1.2718752344e+05
    8.1336386502e-03    1.2649844531e+05
    8.1534720957e-03    1.2583084375e+05
    8.1733558327e-03    1.2520094531e+05
    8.1932730973e-03    1.2459946875e+05
    8.2132071257e-03    1.2403577344e+05
    8.2330890000e-03    1.2349653906e+05
    8.2529615611e-03    1.2299592969e+05
    8.2727763802e-03    1.2251264844e+05
    8.2926023751e-03    1.2205208594e+05
    8.3124246448e-03    1.2160777344e+05
    8.3322748542e-03    1.2118466406e+05
    8.3521194756e-03    1.2077487500e+05
    8.3719678223e-03    1.2039533594e+05
    8.3917891607e-03    1.2003947656e+05
    8.4116021171e-03    1.1971391406e+05
    8.4314141423e-03    1.1941352344e+05
    8.4512168542e-03    1.1914042969e+05
    8.4710381925e-03    1.1888192969e+05
    8.4908353165e-03    1.1865094531e+05
    8.5106678307e-03    1.1842130469e+05
    8.5304882377e-03    1.1819702344e+05
    8.5503393784e-03    1.1797263281e+05
    8.5699046031e-03    1.1775539844e+05
    8.5892248899e-03    1.1754050000e+05
    8.6083402857e-03    1.1733694531e+05
    8.6272666231e-03    1.1714028125e+05
    8.6460309103e-03    1.1695235156e+05
    8.6646731943e-03    1.1677924219e+05
    8.6832325906e-03    1.1661666406e+05
    8.7017398328e-03    1.1645828125e+05
    8.7202098221e-03    1.1631177344e+05
    8.7386453524e-03    1.1617034375e+05
    8.7570473552e-03    1.1603391406e+05
    8.7753897533e-03    1.1591010156e+05
    8.7936492637e-03    1.1578858594e+05
    8.8118780404e-03    1.1567871875e+05
    8.8300397620e-03    1.1556480469e+05
    8.8481390849e-03    1.1545418750e+05
    8.8662039489e-03    1.1534156250e+05
    8.8842641562e-03    1.1523491406e+05
    8.9023411274e-03    1.1512062500e+05
    8.9204348624e-03    1.1501557031e+05
    8.9385388419e-03    1.1490741406e+05
    8.9566456154e-03    1.1480540625e+05
    8.9747514576e-03    1.1470085156e+05
    8.9928600937e-03    1.1459435156e+05
    9.0109808370e-03    1.1448977344e+05
    9.0291155502e-03    1.1438157031e+05
    9.0472688898e-03    1.1427416406e+05
    9.0654399246e-03    1.1416625000e+05
    9.0836230665e-03    1.1405386719e+05
    9.1018192470e-03    1.1393550781e+05
    9.1200266033e-03    1.1381664844e+05
    9.1382460669e-03    1.1368503906e+05
    9.1564757749e-03    1.1355587500e+05
    9.1747231781e-03    1.1341484375e+05
    9.1929892078e-03    1.1327591406e+05
    9.2112747952e-03    1.1313391406e+05
    9.2295790091e-03    1.1298541406e+05
    9.2479009181e-03    1.1284085156e+05
    9.2662386596e-03    1.1268778906e+05
    9.2845931649e-03    1.1253962500e+05
    9.3029672280e-03    1.1239424219e+05
    9.3213599175e-03    1.1225590625e+05
    9.3397712335e-03    1.1212484375e+05
    9.3582011759e-03    1.1200413281e+05
    9.3766497448e-03    1.1188816406e+05
    9.3951150775e-03    1.1179336719e+05
    9.4135999680e-03    1.1170657031e+05
    9.4321016222e-03    1.1163653906e+05
    9.4506228343e-03    1.1157222656e+05
    9.4691645354e-03    1.1151871094e+05
    9.4877239317e-03    1.1147822656e+05
    9.5063010231e-03    1.1144188281e+05
    9.5248948783e-03    1.1140730469e+05
    9.5435054973e-03    1.1137388281e+05
    9.5621328801e-03    1.1133649219e+05
    9.5807760954e-03    1.1130040625e+05
    9.5994332805e-03    1.1125399219e+05
    9.6181081608e-03    1.1120440625e+05
    9.6367979422e-03    1.1115169531e+05
    9.6555035561e-03    1.1108664844e+05
    9.6742231399e-03    1.1101883594e+05
    9.6929576248e-03    1.1093728906e+05
    9.7117051482e-03    1.1085613281e+05
    9.7304685041e-03    1.1077614844e+05
    9.7492448986e-03    1.1069221094e+05
    9.7680361941e-03    1.1061787500e+05
    9.7868405282e-03    1.1054041406e+05
    9.8056588322e-03    1.1047325781e+05
    9.8244920373e-03    1.1041472656e+05
    9.8433364183e-03    1.1035658594e+05
    9.8621929064e-03    1.1029771094e+05
    9.8810633644e-03    1.1024463281e+05
    9.8999459296e-03    1.1019961719e+05
    9.9188406020e-03    1.1016288281e+05
    9.9377483130e-03    1.1013180469e+05
    9.9566690624e-03    1.1010060156e+05
    9.9756028503e-03    1.1006819531e+05
    9.9945487455e-03    1.1003008594e+05
    1.0013507679e-02    1.0999578906e+05
    1.0032479651e-02    1.0995446094e+05
    1.0051463731e-02    1.0990594531e+05
    1.0070459917e-02    1.0986091406e+05
    1.0089469142e-02    1.0980467969e+05
    1.0108492337e-02    1.0975460156e+05
    1.0127528571e-02    1.0970261719e+05
    1.0146577843e-02    1.0964678125e+05
    1.0165639222e-02    1.0959810156e+05
    1.0184712708e-02    1.0955663281e+05
    1.0203798302e-02    1.0951716406e+05
    1.0222896002e-02    1.0948241406e+05
    1.0242006741e-02    1.0944988281e+05
    1.0261129588e-02    1.0942210156e+05
    1.0280264542e-02    1.0939002344e+05
    1.0299413465e-02    1.0936659375e+05
    1.0318575427e-02    1.0934078906e+05
    1.0337748565e-02    1.0931439844e+05
    1.0356934741e-02    1.0928636719e+05
    1.0376133956e-02    1.0925896094e+05
    1.0395346209e-02    1.0922675000e+05
    1.0414571501e-02    1.0919283594e+05
    1.0433809832e-02    1.0915436719e+05
    1.0453061201e-02    1.0910756250e+05
    1.0472324677e-02    1.0906422656e+05
    1.0491601191e-02    1.0901496094e+05
    1.0510892607e-02    1.0896218750e+05
    1.0530196130e-02    1.0890996094e+05
    1.0549513623e-02    1.0885411719e+05
    1.0568842292e-02    1.0879733594e+05
    1.0588183999e-02    1.0874553125e+05
    1.0607538745e-02    1.0869371094e+05
    1.0626907460e-02    1.0864760156e+05
    1.0646289214e-02    1.0860168750e+05
    1.0665684007e-02    1.0856208594e+05
    1.0685092770e-02    1.0852461719e+05
    1.0704516433e-02    1.0848790625e+05
    1.0723951273e-02    1.0845174219e+05
    1.0743400082e-02    1.0841093750e+05
    1.0762862861e-02    1.0836840625e+05
    1.0782338679e-02    1.0831891406e+05
    1.0801829398e-02    1.0827119531e+05
    1.0821334086e-02    1.0821769531e+05
    1.0840852745e-02    1.0815216406e+05
    1.0860386305e-02    1.0808124219e+05
    1.0879932903e-02    1.0799458594e+05
    1.0899493471e-02    1.0790306250e+05
    1.0919069871e-02    1.0779688281e+05
    1.0938662104e-02    1.0768988281e+05
    1.0958270170e-02    1.0756619531e+05
    1.0977892205e-02    1.0743897656e+05
    1.0997531936e-02    1.0730017969e+05
    1.1017187499e-02    1.0716227344e+05
    1.1036860757e-02    1.0701728906e+05
    1.1056551710e-02    1.0686419531e+05
    1.1076259427e-02    1.0671121875e+05
    1.1095987633e-02    1.0656208594e+05
    1.1115733534e-02    1.0641691406e+05
    1.1135498993e-02    1.0627347656e+05
    1.1155283079e-02    1.0613946094e+05
    1.1175086722e-02    1.0601035156e+05
    1.1194912717e-02    1.0588999219e+05
    1.1214758269e-02    1.0578366406e+05
    1.1234625243e-02    1.0568285156e+05
    1.1254511774e-02    1.0559083594e+05
    1.1274418794e-02    1.0550884375e+05
    1.1294347234e-02    1.0544096094e+05
    1.1314296164e-02    1.0537616406e+05
    1.1334266514e-02    1.0532791406e+05
    1.1354257353e-02    1.0528072656e+05
    1.1374268681e-02    1.0524282031e+05
    1.1394302361e-02    1.0521272656e+05
    1.1414355598e-02    1.0518934375e+05
    1.1434430256e-02    1.0517021875e+05
    1.1454525404e-02    1.0515122656e+05
    1.1474640109e-02    1.0513996094e+05
    1.1494777165e-02    1.0512492969e+05
    1.1514934711e-02    1.0510699219e+05
    1.1535113677e-02    1.0508366406e+05
    1.1555313133e-02    1.0506553906e+05
    1.1575534008e-02    1.0503535156e+05
    1.1595774442e-02    1.0500605469e+05
    1.1616035365e-02    1.0496872656e+05
    1.1636316776e-02    1.0493234375e+05
    1.1656619608e-02    1.0488484375e+05
    1.1676942930e-02    1.0483155469e+05
    1.1697287671e-02    1.0476885156e+05
    1.1717652902e-02    1.0470910156e+05
    1.1738038622e-02    1.0465322656e+05
    1.1758443899e-02    1.0459524219e+05
    1.1778870597e-02    1.0453908594e+05
    1.1799318716e-02    1.0449878906e+05
    1.1819788255e-02    1.0446416406e+05
    1.1840280145e-02    1.0443844531e+05
    1.1860790662e-02    1.0441375781e+05
    1.1881321669e-02    1.0440040625e+05
    1.1901874095e-02    1.0439184375e+05
    1.1922447011e-02    1.0438164844e+05
    1.1943042278e-02    1.0437252344e+05
    1.1963658035e-02    1.0436236719e+05
    1.1984295212e-02    1.0435400781e+05
    1.2004952878e-02    1.0433581250e+05
    1.2025631964e-02    1.0431571875e+05
    1.2046331540e-02    1.0429078125e+05
    1.2067052536e-02    1.0426550781e+05
    1.2087795883e-02    1.0423252344e+05
    1.2108558789e-02    1.0419905469e+05
    1.2129344046e-02    1.0417141406e+05
    1.2150149792e-02    1.0414866406e+05
    1.2170976959e-02    1.0413200781e+05
    1.2191825546e-02    1.0410766406e+05
    1.2212695554e-02    1.0408571094e+05
    1.2233586982e-02    1.0405850000e+05
    1.2254500762e-02    1.0402818750e+05
    1.2275436893e-02    1.0399552344e+05
    1.2296394445e-02    1.0394964844e+05
    1.2317374349e-02    1.0390171094e+05
    1.2338375673e-02    1.0384084375e+05
    1.2359398417e-02    1.0378232031e+05
    1.2380442582e-02    1.0372266406e+05
    1.2401508167e-02    1.0366485156e+05
    1.2422595173e-02    1.0360788281e+05
    1.2443703599e-02    1.0355402344e+05
    1.2464834377e-02    1.0349678906e+05
    1.2485986575e-02    1.0344183594e+05
    1.2507158332e-02    1.0338732031e+05
    1.2528351508e-02    1.0334071094e+05
    1.2549565174e-02    1.0330216406e+05
    1.2570801191e-02    1.0327331250e+05
    1.2592058629e-02    1.0324237500e+05
    1.2613337487e-02    1.0320872656e+05
    1.2634636834e-02    1.0318347656e+05
    1.2655957602e-02    1.0315491406e+05
    1.2677297927e-02    1.0313550000e+05
    1.2698660605e-02    1.0311408594e+05
    1.2720043771e-02    1.0309290625e+05
    1.2741449289e-02    1.0307917969e+05
    1.2762876227e-02    1.0306739844e+05
    1.2784325518e-02    1.0306611719e+05
    1.2805794366e-02    1.0307160156e+05
    1.2827285565e-02    1.0309457031e+05
    1.2848797254e-02    1.0314333594e+05
    1.2870330364e-02    1.0324282031e+05
    1.2891885825e-02    1.0340289844e+05
    1.2913462706e-02    1.0364931250e+05
    1.2935061008e-02    1.0398755469e+05
    1.2956679799e-02    1.0444659375e+05
    1.2978320010e-02    1.0503412500e+05
    1.2999981642e-02    1.0576416406e+05
    1.3021663763e-02    1.0663112500e+05
    1.3043368235e-02    1.0761065625e+05
    1.3065092266e-02    1.0866207031e+05
    1.3086837716e-02    1.0971188281e+05
    1.3108605519e-02    1.1068749219e+05
    1.3130392879e-02    1.1151521094e+05
    1.3152201660e-02    1.1212800000e+05
    1.3174032792e-02    1.1248159375e+05
    1.3195885345e-02    1.1258528125e+05
    1.3217759319e-02    1.1242971875e+05
    1.3239653781e-02    1.1205674219e+05
    1.3261569664e-02    1.1150540625e+05
    1.3283506967e-02    1.1083975781e+05
    1.3305463828e-02    1.1011238281e+05
    1.3327440247e-02    1.0937327344e+05
    1.3349435292e-02    1.0868414844e+05
    1.3371448033e-02    1.0808247656e+05
    1.3393475674e-02    1.0758821094e+05
    1.3415516354e-02    1.0720402344e+05
    1.3437564485e-02    1.0691011719e+05
    1.3459613547e-02    1.0666327344e+05
    1.3481658883e-02    1.0642141406e+05
    1.3503690250e-02    1.0615503906e+05
    1.3525702059e-02    1.0584165625e+05
    1.3547683135e-02    1.0547178125e+05
    1.3569628820e-02    1.0503684375e+05
    1.3591531664e-02    1.0455361719e+05
    1.3613392599e-02    1.0404180469e+05
    1.3635210693e-02    1.0352907031e+05
    1.3656994328e-02    1.0303527344e+05
    1.3678749092e-02    1.0258490625e+05
    1.3700488023e-02    1.0219196875e+05
    1.3722228818e-02    1.0186317969e+05
    1.3743981719e-02    1.0159360156e+05
    1.3765762560e-02    1.0137758594e+05
    1.3787578791e-02    1.0121071094e+05
    1.3809437864e-02    1.0107830469e+05
    1.3831341639e-02    1.0097703906e+05
    1.3853288256e-02    1.0089777344e+05
    1.3875273056e-02    1.0083983594e+05
    1.3897285797e-02    1.0078897656e+05
    1.3919321820e-02    1.0073194531e+05
    1.3941374607e-02    1.0067688281e+05
    1.3963440433e-02    1.0061738281e+05
    1.3985517435e-02    1.0055675781e+05
    1.4007603750e-02    1.0049985156e+05
    1.4029704034e-02    1.0043962500e+05
    1.4051820152e-02    1.0038935156e+05
    1.4073957689e-02    1.0034510156e+05
    1.4096121304e-02    1.0031087500e+05
    1.4118315652e-02    1.0027959375e+05
    1.4140545391e-02    1.0025335156e+05
    1.4162814245e-02    1.0023532031e+05
    1.4185124077e-02    1.0022475000e+05
    1.4207473956e-02    1.0022527344e+05
    1.4229862019e-02    1.0023440625e+05
    1.4252286404e-02    1.0026233594e+05
    1.4274741523e-02    1.0031282031e+05
    1.4297228307e-02    1.0039066406e+05
    1.4319745824e-02    1.0048764844e+05
    1.4342290349e-02    1.0060902344e+05
    1.4364863746e-02    1.0073522656e+05
    1.4387467876e-02    1.0087560156e+05
    1.4410103671e-02    1.0101514844e+05
    1.4432771131e-02    1.0114469531e+05
    1.4455472119e-02    1.0125686719e+05
    1.4478209428e-02    1.0135222656e+05
    1.4500979334e-02    1.0142744531e+05
    1.4523783699e-02    1.0148281250e+05
    1.4546621591e-02    1.0152917969e+05
    1.4569494873e-02    1.0158377344e+05
    1.4592399821e-02    1.0164028125e+05
    1.4615339227e-02    1.0169699219e+05
    1.4638305642e-02    1.0175865625e+05
    1.4661304653e-02    1.0182328906e+05
    1.4684336260e-02    1.0188933594e+05
    1.4707398601e-02    1.0194213281e+05
    1.4730494469e-02    1.0199237500e+05
    1.4753622934e-02    1.0202371094e+05
    1.4776783995e-02    1.0204382031e+05
    1.4799979515e-02    1.0204012500e+05
    1.4823205769e-02    1.0202610156e+05
    1.4846466482e-02    1.0200037500e+05
    1.4869757928e-02    1.0195455469e+05
    1.4893081971e-02    1.0191113281e+05
    1.4916437678e-02    1.0186863281e+05
    1.4939822257e-02    1.0182344531e+05
    1.4963239431e-02    1.0177869531e+05
    1.4986685477e-02    1.0173860156e+05
    1.5010161325e-02    1.0170546094e+05
    1.5033668838e-02    1.0166841406e+05
    1.5057205223e-02    1.0164171094e+05
    1.5080772340e-02    1.0161591406e+05
    1.5104367398e-02    1.0159591406e+05
    1.5127992257e-02    1.0157715625e+05
    1.5151646920e-02    1.0156884375e+05
    1.5175330453e-02    1.0155502344e+05
    1.5199041925e-02    1.0155003906e+05
    1.5222782269e-02    1.0154586719e+05
    1.5246548690e-02    1.0153643750e+05
    1.5270343982e-02    1.0153380469e+05
    1.5294168144e-02    1.0152178906e+05
    1.5318016522e-02    1.0151046875e+05
    1.5341891907e-02    1.0149780469e+05
    1.5365792438e-02    1.0147703906e+05
    1.5389721841e-02    1.0144927344e+05
    1.5413676389e-02    1.0142028906e+05
    1.5437657945e-02    1.0139018750e+05
    1.5461664647e-02    1.0135712500e+05
    1.5485695563e-02    1.0132610156e+05
    1.5509752557e-02    1.0129989844e+05
    1.5533835627e-02    1.0126800000e+05
    1.5557944775e-02    1.0124172656e+05
    1.5582079068e-02    1.0121244531e+05
    1.5606240369e-02    1.0117996094e+05
    1.5630424023e-02    1.0115416406e+05
    1.5654634684e-02    1.0112124219e+05
    1.5678871423e-02    1.0108810156e+05
    1.5703132376e-02    1.0105689844e+05
    1.5727419406e-02    1.0102333594e+05
    1.5751728788e-02    1.0098902344e+05
    1.5776060522e-02    1.0095409375e+05
    1.5800418332e-02    1.0092231250e+05
    1.5824800357e-02    1.0088496875e+05
    1.5849204734e-02    1.0085818750e+05
    1.5873633325e-02    1.0083203125e+05
    1.5898084268e-02    1.0080436719e+05
    1.5922557563e-02    1.0077005469e+05
    1.5947058797e-02    1.0074169531e+05
    1.5971582383e-02    1.0071367969e+05
    1.5996130183e-02    1.0068912500e+05
    1.6020702198e-02    1.0065650781e+05
    1.6045298427e-02    1.0062762500e+05
    1.6069920734e-02    1.0058833594e+05
    1.6094569117e-02    1.0054677344e+05
    1.6119243577e-02    1.0051261719e+05
    1.6143942252e-02    1.0047371094e+05
    1.6168667004e-02    1.0044033594e+05
    1.6193419695e-02    1.0040960156e+05
    1.6218200326e-02    1.0038058594e+05
    1.6243007034e-02    1.0035937500e+05
    1.6267839819e-02    1.0033343750e+05
    1.6292702407e-02    1.0031050000e+05
    1.6317596659e-02    1.0028871875e+05
    1.6342513263e-02    1.0027758594e+05
    1.6367461532e-02    1.0026216406e+05
    1.6392435879e-02    1.0025713281e+05
    1.6417443752e-02    1.0023857031e+05
    1.6442479566e-02    1.0022864844e+05
    1.6467543319e-02    1.0021122656e+05
    1.6492636874e-02    1.0019183594e+05
    1.6517756507e-02    1.0017178906e+05
    1.6542907804e-02    1.0015781250e+05
    1.6568088904e-02    1.0014071094e+05
    1.6593271866e-02    1.0012483594e+05
    1.6618426889e-02    1.0009993750e+05
    1.6643559560e-02    1.0007864844e+05
    1.6668669879e-02    1.0005972656e+05
    1.6693757847e-02    1.0004252344e+05
    1.6718825325e-02    1.0003367969e+05
    1.6743874177e-02    1.0001381250e+05
    1.6768900678e-02    9.9994195312e+04
    1.6793908551e-02    9.9979570312e+04
    1.6818899661e-02    9.9966835938e+04
    1.6843874007e-02    9.9958414062e+04
    1.6868829727e-02    9.9952343750e+04
    1.6893770546e-02    9.9946460938e+04
    1.6918692738e-02    9.9941531250e+04
    1.6943598166e-02    9.9938320312e+04
    1.6968490556e-02    9.9935492188e+04
    1.6993366182e-02    9.9926507812e+04
    1.7018226907e-02    9.9927460938e+04
    1.7043072730e-02    9.9927039062e+04
    1.7067901790e-02    9.9927218750e+04
    1.7092714086e-02    9.9924210938e+04
    1.7117511481e-02    9.9921218750e+04
    1.7142292112e-02    9.9919476562e+04
    1.7167057842e-02    9.9911148438e+04
    1.7191808671e-02    9.9899335938e+04
    1.7216544598e-02    9.9891601562e+04
    1.7241263762e-02    9.9878718750e+04
    1.7265968025e-02    9.9868835938e+04
    1.7290659249e-02    9.9864460938e+04
    1.7315333709e-02    9.9859468750e+04
    1.7339993268e-02    9.9856523438e+04
    1.7364639789e-02    9.9859382812e+04
    1.7389267683e-02    9.9868585938e+04
    1.7413880676e-02    9.9877820312e+04
    1.7438478768e-02    9.9897460938e+04
    1.7463061959e-02    9.9933789062e+04
    1.7487626523e-02    9.9960945312e+04
    1.7512176186e-02    9.9996320312e+04
    1.7536709085e-02    1.0003671875e+05
    1.7561223358e-02    1.0008916406e+05
    1.7585720867e-02    1.0014027344e+05
    1.7610201612e-02    1.0019724219e+05
    1.7634663731e-02    1.0026046094e+05
    1.7659107223e-02    1.0033022656e+05
    1.7683532089e-02    1.0041133594e+05
    1.7707940191e-02    1.0049247656e+05
    1.7732329667e-02    1.0057778125e+05
    1.7756698653e-02    1.0067055469e+05
    1.7781050876e-02    1.0077081250e+05
    1.7805384472e-02    1.0086785156e+05
    1.7829699442e-02    1.0096674219e+05
    1.7853999510e-02    1.0106563281e+05
    1.7878280953e-02    1.0116452344e+05
    1.7902545631e-02    1.0126577344e+05
    1.7926793545e-02    1.0135330469e+05
    1.7951028422e-02    1.0143660156e+05
    1.7975246534e-02    1.0150864844e+05
    1.7999447882e-02    1.0157659375e+05
    1.8023636192e-02    1.0163199219e+05
    1.8047811463e-02    1.0168193750e+05
    1.8071975559e-02    1.0172488281e+05
    1.8096126616e-02    1.0175259375e+05
    1.8120266497e-02    1.0178468750e+05
    1.8144397065e-02    1.0180215625e+05
    1.8168520182e-02    1.0181413281e+05
    1.8192630261e-02    1.0183247656e+05
    1.8216732889e-02    1.0183910156e+05
    1.8240824342e-02    1.0184700781e+05
    1.8264908344e-02    1.0184728906e+05
    1.8288983032e-02    1.0184586719e+05
    1.8313048407e-02    1.0184664844e+05
    1.8337102607e-02    1.0185438281e+05
    1.8361147493e-02    1.0185077344e+05
    1.8385183066e-02    1.0184968750e+05
    1.8409207463e-02    1.0184702344e+05
    1.8433224410e-02    1.0184987500e+05
    1.8457230181e-02    1.0185416406e+05
    1.8481226638e-02    1.0186511719e+05
    1.8505210057e-02    1.0187260156e+05
    1.8529184163e-02    1.0188708594e+05
    1.8553148955e-02    1.0191055469e+05
    1.8577100709e-02    1.0194435156e+05
    1.8601041287e-02    1.0197993750e+05
    1.8624972552e-02    1.0202091406e+05
    1.8648892641e-02    1.0207122656e+05
    1.8672801554e-02    1.0212830469e+05
    1.8696699291e-02    1.0220550000e+05
    1.8720587716e-02    1.0229209375e+05
    1.8744463101e-02    1.0238877344e+05
    1.8768329173e-02    1.0249816406e+05
    1.8792184070e-02    1.0260764844e+05
    1.8816027790e-02    1.0273483594e+05
    1.8839860335e-02    1.0285525000e+05
    1.8863683566e-02    1.0298588281e+05
    1.8887493759e-02    1.0311306250e+05
    1.8911294639e-02    1.0322500000e+05
    1.8935086206e-02    1.0332467969e+05
    1.8958866596e-02    1.0340008594e+05
    1.8982635811e-02    1.0344883594e+05
    1.9006397575e-02    1.0346818750e+05
    1.9030146301e-02    1.0345946875e+05
    1.9053885713e-02    1.0342640625e+05
    1.9077615812e-02    1.0334999219e+05
    1.9101334736e-02    1.0324039844e+05
    1.9125042483e-02    1.0309878125e+05
    1.9148740917e-02    1.0291544531e+05
    1.9172428176e-02    1.0270550781e+05
    1.9196104258e-02    1.0247121094e+05
    1.9219771028e-02    1.0222478906e+05
    1.9243424758e-02    1.0196983594e+05
    1.9267069176e-02    1.0171921094e+05
    1.9290700555e-02    1.0147981250e+05
    1.9314322621e-02    1.0125582031e+05
    1.9337931648e-02    1.0105885156e+05
    1.9361529499e-02    1.0089332031e+05
    1.9385114312e-02    1.0076196875e+05
    1.9408687949e-02    1.0066197656e+05
    1.9432250410e-02    1.0058534375e+05
    1.9455801696e-02    1.0053352344e+05
    1.9479339942e-02    1.0049699219e+05
    1.9502865151e-02    1.0047165625e+05
    1.9526379183e-02    1.0045278906e+05
    1.9549878314e-02    1.0044166406e+05
    1.9573366269e-02    1.0043762500e+05
    1.9596841186e-02    1.0043600781e+05
    1.9620303065e-02    1.0043859375e+05
    1.9643751904e-02    1.0044821875e+05
    1.9667187706e-02    1.0045327344e+05
    1.9690606743e-02    1.0047712500e+05
    1.9714014605e-02    1.0050107031e+05
    1.9737409428e-02    1.0053400781e+05
    1.9760791212e-02    1.0057346094e+05
    1.9784159958e-02    1.0062394531e+05
    1.9807513803e-02    1.0067458594e+05
    1.9830854610e-02    1.0074002344e+05
    1.9854182377e-02    1.0080977344e+05
    1.9877497107e-02    1.0088847656e+05
    1.9900798798e-02    1.0098538281e+05
    1.9924087450e-02    1.0107639844e+05
    1.9947361201e-02    1.0117972656e+05
    1.9970623776e-02    1.0129213281e+05
    1.9993871450e-02    1.0140513281e+05
    2.0017107949e-02    1.0151837500e+05
    2.0040329546e-02    1.0163640625e+05
    2.0063538104e-02    1.0175062500e+05
    2.0086731762e-02    1.0186657031e+05
    2.0109914243e-02    1.0197052344e+05
    2.0133081824e-02    1.0206833594e+05
    2.0156236365e-02    1.0216247656e+05
    2.0179376006e-02    1.0224291406e+05
    2.0202504471e-02    1.0232028125e+05
    2.0225618035e-02    1.0238667969e+05
    2.0248720422e-02    1.0244835156e+05
    2.0271807909e-02    1.0250483594e+05
    2.0294882357e-02    1.0256128906e+05
    2.0317947492e-02    1.0261046094e+05
    2.0340997726e-02    1.0265686719e+05
    2.0364036784e-02    1.0269805469e+05
    2.0387060940e-02    1.0273897656e+05
    2.0410073921e-02    1.0277466406e+05
    2.0433073863e-02    1.0281159375e+05
    2.0456060767e-02    1.0284260156e+05
    2.0479036495e-02    1.0286292969e+05
    2.0501999184e-02    1.0287800000e+05
    2.0524948835e-02    1.0288890625e+05
    2.0547885448e-02    1.0289427344e+05
    2.0570809022e-02    1.0289414844e+05
    2.0593719557e-02    1.0288403125e+05
    2.0616617054e-02    1.0287560156e+05
    2.0639499649e-02    1.0285730469e+05
    2.0662369207e-02    1.0284689844e+05
    2.0685223863e-02    1.0282553906e+05
    2.0708063617e-02    1.0280260156e+05
    2.0730890334e-02    1.0278214844e+05
    2.0753700286e-02    1.0275611719e+05
    2.0776495337e-02    1.0272644531e+05
    2.0799275488e-02    1.0270121875e+05
    2.0822042599e-02    1.0268059375e+05
    2.0844791085e-02    1.0264594531e+05
    2.0867524669e-02    1.0260992969e+05
    2.0890241489e-02    1.0257764844e+05
    2.0912945271e-02    1.0254611719e+05
    2.0935632288e-02    1.0251803125e+05
    2.0958306268e-02    1.0248771094e+05
    2.0980965346e-02    1.0245540625e+05
    2.1003607661e-02    1.0242331250e+05
    2.1026238799e-02    1.0239828906e+05
    2.1048855036e-02    1.0236868750e+05
    2.1071458235e-02    1.0233356250e+05
    2.1094048396e-02    1.0230247656e+05
    2.1116625518e-02    1.0227802344e+05
    2.1139191464e-02    1.0225692969e+05
    2.1161744371e-02    1.0222587500e+05
    2.1184286103e-02    1.0219664844e+05
    2.1206818521e-02    1.0216566406e+05
    2.1229337901e-02    1.0213461719e+05
    2.1251846105e-02    1.0211540625e+05
    2.1274344996e-02    1.0209227344e+05
    2.1296832711e-02    1.0207330469e+05
    2.1319312975e-02    1.0205196875e+05
    2.1341778338e-02    1.0202977344e+05
    2.1364232525e-02    1.0201036719e+05
    2.1386675537e-02    1.0199875000e+05
    2.1409107372e-02    1.0198138281e+05
    2.1431528032e-02    1.0196685156e+05
    2.1453931928e-02    1.0194946094e+05
    2.1476324648e-02    1.0193091406e+05
    2.1498700604e-02    1.0191465625e+05
    2.1521063522e-02    1.0189742969e+05
    2.1543409675e-02    1.0188639844e+05
    2.1565740928e-02    1.0186782031e+05
    2.1588053554e-02    1.0185188281e+05
    2.1610351279e-02    1.0183292969e+05
    2.1632634103e-02    1.0181403125e+05
    2.1654898301e-02    1.0179511719e+05
    2.1677147597e-02    1.0178697656e+05
    2.1699378267e-02    1.0176762500e+05
    2.1721594036e-02    1.0175297656e+05
    2.1743793041e-02    1.0173359375e+05
    2.1765975282e-02    1.0171149219e+05
    2.1788140759e-02    1.0168715625e+05
    2.1810289472e-02    1.0167100781e+05
    2.1832419559e-02    1.0165558594e+05
    2.1854531020e-02    1.0164421875e+05
    2.1876627579e-02    1.0163850781e+05
    2.1898705512e-02    1.0162444531e+05
    2.1920768544e-02    1.0161999219e+05
    2.1942811087e-02    1.0160938281e+05
    2.1964838728e-02    1.0160647656e+05
    2.1986849606e-02    1.0160800781e+05
    2.2008845583e-02    1.0159903906e+05
    2.2030822933e-02    1.0159871094e+05
    2.2052785382e-02    1.0159718750e+05
    2.2074732929e-02    1.0159992969e+05
    2.2096665576e-02    1.0160535156e+05
    2.2118583322e-02    1.0161772656e+05
    2.2140489891e-02    1.0162822656e+05
    2.2162377834e-02    1.0163333594e+05
    2.2184254602e-02    1.0164781250e+05
    2.2206118330e-02    1.0166139844e+05
    2.2227969021e-02    1.0167419531e+05
    2.2249806672e-02    1.0168978906e+05
    2.2271629423e-02    1.0170778125e+05
    2.2293440998e-02    1.0171727344e+05
    2.2315241396e-02    1.0173058594e+05
    2.2337028757e-02    1.0174056250e+05
    2.2358803079e-02    1.0174710156e+05
    2.2380566224e-02    1.0175368750e+05
    2.2402318195e-02    1.0175555469e+05
    2.2424057126e-02    1.0176177344e+05
    2.2445784882e-02    1.0175468750e+05
    2.2467501462e-02    1.0175247656e+05
    2.2489206865e-02    1.0174935156e+05
    2.2510899231e-02    1.0174053906e+05
    2.2532582283e-02    1.0172666406e+05
    2.2554252297e-02    1.0171102344e+05
    2.2575911134e-02    1.0169377344e+05
    2.2597560659e-02    1.0167597656e+05
    2.2619199008e-02    1.0165174219e+05
    2.2640828043e-02    1.0162717969e+05
    2.2662445903e-02    1.0160946094e+05
    2.2684050724e-02    1.0158835156e+05
    2.2705646232e-02    1.0157214844e+05
    2.2727232426e-02    1.0155062500e+05
    2.2748809308e-02    1.0153052344e+05
    2.2770375013e-02    1.0151828906e+05
    2.2791929543e-02    1.0150875000e+05
    2.2813472897e-02    1.0150680469e+05
    2.2835006937e-02    1.0150575781e+05
    2.2856531665e-02    1.0150610156e+05
    2.2878047079e-02    1.0151450000e+05
    2.2899549454e-02    1.0152107031e+05
    2.2921044379e-02    1.0153396094e+05
    2.2942528129e-02    1.0154761719e+05
    2.2964000702e-02    1.0156324219e+05
    2.2985465825e-02    1.0158782031e+05
    2.3006917909e-02    1.0160014844e+05
    2.3028360680e-02    1.0162081250e+05
    2.3049792275e-02    1.0163816406e+05
    2.3071214557e-02    1.0165461719e+05
    2.3092625663e-02    1.0166942969e+05
    2.3114029318e-02    1.0167783594e+05
    2.3135419935e-02    1.0168980469e+05
    2.3156799376e-02    1.0169903906e+05
    2.3178169504e-02    1.0169985156e+05
    2.3199530318e-02    1.0170369531e+05
    2.3220879957e-02    1.0169744531e+05
    2.3242218420e-02    1.0169611719e+05
    2.3263547570e-02    1.0169325000e+05
    2.3284865543e-02    1.0168900781e+05
    2.3306174204e-02    1.0168496094e+05
    2.3327469826e-02    1.0167496094e+05
    2.3348756135e-02    1.0166144531e+05
    2.3370031267e-02    1.0164774219e+05
    2.3391297087e-02    1.0163746875e+05
    2.3412553594e-02    1.0162637500e+05
    2.3433798924e-02    1.0161709375e+05
    2.3455033079e-02    1.0160938281e+05
    2.3476256058e-02    1.0159556250e+05
    2.3497469723e-02    1.0159291406e+05
    2.3518672213e-02    1.0158793750e+05
    2.3539865389e-02    1.0158412500e+05
    2.3561049253e-02    1.0158491406e+05
    2.3582221940e-02    1.0158030469e+05
    2.3603385314e-02    1.0157250781e+05
    2.3624535650e-02    1.0156692969e+05
    2.3645676672e-02    1.0156400000e+05
    2.3666808382e-02    1.0156709375e+05
    2.3687927052e-02    1.0156481250e+05
    2.3709038273e-02    1.0156147656e+05
    2.3730138317e-02    1.0155733594e+05
    2.3751227185e-02    1.0155433594e+05
    2.3772306740e-02    1.0155803906e+05
    2.3793375120e-02    1.0154781250e+05
    2.3814432323e-02    1.0153786719e+05
    2.3835480213e-02    1.0152991406e+05
    2.3856516927e-02    1.0152285156e+05
    2.3877544329e-02    1.0151435156e+05
    2.3898560554e-02    1.0150781250e+05
    2.3919565603e-02    1.0150472656e+05
    2.3940561339e-02    1.0149719531e+05
    2.3961545900e-02    1.0149109375e+05
    2.3982519284e-02    1.0148727344e+05
    2.4003483355e-02    1.0148237500e+05
    2.4024436250e-02    1.0147992969e+05
    2.4045377970e-02    1.0148233594e+05
    2.4066310376e-02    1.0148010156e+05
    2.4087233469e-02    1.0146652344e+05
    2.4108145386e-02    1.0146197656e+05
    2.4129044265e-02    1.0146346094e+05
    2.4149935693e-02    1.0146071875e+05
    2.4170814082e-02    1.0145693750e+05
    2.4191683158e-02    1.0145114844e+05
    2.4212542921e-02    1.0144646875e+05
    2.4233391508e-02    1.0144766406e+05
    2.4254228920e-02    1.0144068750e+05
    2.4275057018e-02    1.0143681250e+05
    2.4295873940e-02    1.0143153125e+05
    2.4316681549e-02    1.0142608594e+05
    2.4337477982e-02    1.0142299219e+05
    2.4358265102e-02    1.0141775000e+05
    2.4379042909e-02    1.0141714844e+05
    2.4399809539e-02    1.0141222656e+05
    2.4420566857e-02    1.0140753906e+05
    2.4441312999e-02    1.0140796094e+05
    2.4462047964e-02    1.0141224219e+05
    2.4482775480e-02    1.0142202344e+05
    2.4503491819e-02    1.0142597656e+05
    2.4524198845e-02    1.0143558594e+05
    2.4544894695e-02    1.0144846094e+05
    2.4565581232e-02    1.0146021094e+05
    2.4586258456e-02    1.0146828906e+05
    2.4606924504e-02    1.0148896875e+05
    2.4627581239e-02    1.0150619531e+05
    2.4648228660e-02    1.0151646094e+05
    2.4668866768e-02    1.0153459375e+05
    2.4689495564e-02    1.0155372656e+05
    2.4710113183e-02    1.0156919531e+05
    2.4730721489e-02    1.0158396875e+05
    2.4751318619e-02    1.0160153125e+05
    2.4771906435e-02    1.0161727344e+05
    2.4792486802e-02    1.0162714844e+05
    2.4813055992e-02    1.0163900781e+05
    2.4833614007e-02    1.0164003125e+05
    2.4854162708e-02    1.0164484375e+05
    2.4874702096e-02    1.0164784375e+05
    2.4895232171e-02    1.0164657031e+05
    2.4915752932e-02    1.0164430469e+05
    2.4936262518e-02    1.0163957031e+05
    2.4956764653e-02    1.0163006250e+05
    2.4977253750e-02    1.0161371875e+05
    2.4997735396e-02    1.0159144531e+05
    2.5018205866e-02    1.0156908594e+05
    2.5038668886e-02    1.0153711719e+05
    2.5059120730e-02    1.0150259375e+05
    2.5079563260e-02    1.0146916406e+05
    2.5099996477e-02    1.0143812500e+05
    2.5120420381e-02    1.0140400781e+05
    2.5140833110e-02    1.0137546094e+05
    2.5161236525e-02    1.0134564844e+05
    2.5181630626e-02    1.0131710156e+05
    2.5202017277e-02    1.0129947656e+05
    2.5222390890e-02    1.0128452344e+05
    2.5242757052e-02    1.0127628906e+05
    2.5263112038e-02    1.0127196875e+05
    2.5283459574e-02    1.0128002344e+05
    2.5303795934e-02    1.0128952344e+05
    2.5324124843e-02    1.0130996094e+05
    2.5344440714e-02    1.0133246094e+05
    2.5364749134e-02    1.0135811719e+05
    2.5385048240e-02    1.0139034375e+05
    2.5405339897e-02    1.0142219531e+05
    2.5425618514e-02    1.0145667969e+05
    2.5445887819e-02    1.0148434375e+05
    2.5466147810e-02    1.0151510156e+05
    2.5486400351e-02    1.0154442969e+05
    2.5506639853e-02    1.0157547656e+05
    2.5526873767e-02    1.0160232031e+05
    2.5547094643e-02    1.0163136719e+05
    2.5567308068e-02    1.0165863281e+05
    2.5587510318e-02    1.0167802344e+05
    2.5607703254e-02    1.0169384375e+05
    2.5627886876e-02    1.0171058594e+05
    2.5648061186e-02    1.0172128125e+05
    2.5668226182e-02    1.0173760156e+05
    2.5688380003e-02    1.0175964844e+05
    2.5708526373e-02    1.0177489844e+05
    2.5728661567e-02    1.0178755469e+05
    2.5748789310e-02    1.0180696094e+05
    2.5768904015e-02    1.0182510156e+05
    2.5789011270e-02    1.0183603125e+05
    2.5809109211e-02    1.0184727344e+05
    2.5829195976e-02    1.0186285156e+05
    2.5849273428e-02    1.0187817969e+05
    2.5869343430e-02    1.0189084375e+05
    2.5889402255e-02    1.0190557031e+05
    2.5909451768e-02    1.0191528125e+05
    2.5929493830e-02    1.0192460156e+05
    2.5949522853e-02    1.0192835156e+05
    2.5969544426e-02    1.0192883594e+05
    2.5989556685e-02    1.0193296094e+05
    2.6009559631e-02    1.0193839844e+05
    2.6029553264e-02    1.0193853125e+05
    2.6049537584e-02    1.0194016406e+05
    2.6069512591e-02    1.0194083594e+05
    2.6089478284e-02    1.0193803906e+05
    2.6109432802e-02    1.0193171094e+05
    2.6129379869e-02    1.0192417969e+05
    2.6149315760e-02    1.0191566406e+05
    2.6169244200e-02    1.0191308594e+05
    2.6189163327e-02    1.0190378125e+05
    2.6209073141e-02    1.0189577344e+05
    2.6228975505e-02    1.0188469531e+05
    2.6248866692e-02    1.0188441406e+05
    2.6268748567e-02    1.0187340625e+05
    2.6288621128e-02    1.0187124219e+05
    2.6308484375e-02    1.0186514844e+05
    2.6328338310e-02    1.0185653906e+05
    2.6348184794e-02    1.0184596094e+05
    2.6368021965e-02    1.0183952344e+05
    2.6387847960e-02    1.0183500000e+05
    2.6407664642e-02    1.0183260156e+05
    2.6427472010e-02    1.0182565625e+05
    2.6447271928e-02    1.0181655469e+05
    2.6467062533e-02    1.0181655469e+05
    2.6486843824e-02    1.0180187500e+05
    2.6506617665e-02    1.0179965625e+05
    2.6526380330e-02    1.0179986719e+05
    2.6546133682e-02    1.0180137500e+05
    2.6565877721e-02    1.0179700781e+05
    2.6585612446e-02    1.0178785156e+05
    2.6605339721e-02    1.0177586719e+05
    2.6625057682e-02    1.0177064844e+05
    2.6644766331e-02    1.0176764844e+05
    2.6664465666e-02    1.0176260156e+05
    2.6684155688e-02    1.0176374219e+05
    2.6703836396e-02    1.0175694531e+05
    2.6723509654e-02    1.0174893750e+05
    2.6743173599e-02    1.0174425781e+05
    2.6762828231e-02    1.0174402344e+05
    2.6782475412e-02    1.0173931250e+05
    2.6802113280e-02    1.0173222656e+05
    2.6821739972e-02    1.0172856250e+05
    2.6841359213e-02    1.0172516406e+05
    2.6860967278e-02    1.0171846094e+05
    2.6880569756e-02    1.0171917969e+05
    2.6900164783e-02    1.0172013281e+05
    2.6919748634e-02    1.0172159375e+05
    2.6939325035e-02    1.0172418750e+05
    2.6958892122e-02    1.0171977344e+05
    2.6978449896e-02    1.0171410156e+05
    2.6997998357e-02    1.0171440625e+05
    2.7017539367e-02    1.0171050000e+05
    2.7037071064e-02    1.0170860156e+05
    2.7056595311e-02    1.0171897656e+05
    2.7076110244e-02    1.0172791406e+05
    2.7095617726e-02    1.0172803125e+05
    2.7115115896e-02    1.0172935156e+05
    2.7134604752e-02    1.0173078125e+05
    2.7154086158e-02    1.0173246094e+05
    2.7173558250e-02    1.0174352344e+05
    2.7193021029e-02    1.0174464844e+05
    2.7212476358e-02    1.0174853906e+05
    2.7231922373e-02    1.0175739844e+05
    2.7251357213e-02    1.0176203906e+05
    2.7270786464e-02    1.0176467969e+05
    2.7290204540e-02    1.0177207031e+05
    2.7309613302e-02    1.0178006250e+05
    2.7329014614e-02    1.0178857031e+05
    2.7348404750e-02    1.0180111719e+05
    2.7367785573e-02    1.0180587500e+05
    2.7387158945e-02    1.0181177344e+05
    2.7406521142e-02    1.0181541406e+05
    2.7425874025e-02    1.0181892969e+05
    2.7445219457e-02    1.0182591406e+05
    2.7464553714e-02    1.0183083594e+05
    2.7483878657e-02    1.0183721094e+05
    2.7503194287e-02    1.0184733594e+05
    2.7522502467e-02    1.0185050781e+05
    2.7541799471e-02    1.0185091406e+05
    2.7561087161e-02    1.0185449219e+05
    2.7580365539e-02    1.0185899219e+05
    2.7599634603e-02    1.0185405469e+05
    2.7618894354e-02    1.0185793750e+05
    2.7638144791e-02    1.0185947656e+05
    2.7657385916e-02    1.0186292969e+05
    2.7676619589e-02    1.0185913281e+05
    2.7695843950e-02    1.0185928906e+05
    2.7715058997e-02    1.0186118750e+05
    2.7734262869e-02    1.0185103906e+05
    2.7753459290e-02    1.0184700000e+05
    2.7772648260e-02    1.0184164844e+05
    2.7791827917e-02    1.0184132031e+05
    2.7810998261e-02    1.0183246094e+05
    2.7830159292e-02    1.0183139844e+05
    2.7849311009e-02    1.0182771875e+05
    2.7868455276e-02    1.0181921094e+05
    2.7887590230e-02    1.0181611719e+05
    2.7906717733e-02    1.0181297656e+05
    2.7925835922e-02    1.0181312500e+05
    2.7944946662e-02    1.0181092969e+05
    2.7964048088e-02    1.0180634375e+05
    2.7983140200e-02    1.0180400781e+05
    2.8002224863e-02    1.0180390625e+05
    2.8021300212e-02    1.0179931250e+05
    2.8040368110e-02    1.0179691406e+05
    2.8059426695e-02    1.0179344531e+05
    2.8078475967e-02    1.0179503125e+05
    2.8097519651e-02    1.0179575781e+05
    2.8116554022e-02    1.0180249219e+05
    2.8135580942e-02    1.0180780469e+05
    2.8154598549e-02    1.0180656250e+05
    2.8173606843e-02    1.0181005469e+05
    2.8192607686e-02    1.0181508594e+05
    2.8211599216e-02    1.0181564844e+05
    2.8230583295e-02    1.0181628125e+05
    2.8249559924e-02    1.0182427344e+05
    2.8268527240e-02    1.0182796875e+05
    2.8287487105e-02    1.0183328125e+05
    2.8306435794e-02    1.0183700000e+05
    2.8325378895e-02    1.0184424219e+05
    2.8344312683e-02    1.0185397656e+05
    2.8363237157e-02    1.0185681250e+05
    2.8382156044e-02    1.0185147656e+05
    2.8401065618e-02    1.0185427344e+05
    2.8419965878e-02    1.0186760156e+05
    2.8438858688e-02    1.0187088281e+05
    2.8457742184e-02    1.0187430469e+05
    2.8476616368e-02    1.0187658594e+05
    2.8495483100e-02    1.0187885156e+05
    2.8514338657e-02    1.0188444531e+05
    2.8533160686e-02    1.0188788281e+05
    2.8551930562e-02    1.0189134375e+05
    2.8570635244e-02    1.0189366406e+05
    2.8589271009e-02    1.0189585156e+05
    2.8607837856e-02    1.0189900781e+05
    2.8626350686e-02    1.0189966406e+05
    2.8644818813e-02    1.0189771094e+05
    2.8663259000e-02    1.0189582031e+05
    2.8681686148e-02    1.0189828906e+05
    2.8700113297e-02    1.0190202344e+05
    2.8718546033e-02    1.0190941406e+05
    2.8736986220e-02    1.0191091406e+05
    2.8755431995e-02    1.0191357031e+05
    2.8773877770e-02    1.0191610156e+05
    2.8792314231e-02    1.0191391406e+05
    2.8810730204e-02    1.0191350781e+05
    2.8829116374e-02    1.0191511719e+05
    2.8847465292e-02    1.0191185156e+05
    2.8865773231e-02    1.0190975000e+05
    2.8884036466e-02    1.0190981250e+05
    2.8902258724e-02    1.0190863281e+05
    2.8920443729e-02    1.0191211719e+05
    2.8938598931e-02    1.0191571094e+05
    2.8956729919e-02    1.0192374219e+05
    2.8974846005e-02    1.0192609375e+05
    2.8992949054e-02    1.0192130469e+05
    2.9011042789e-02    1.0191549219e+05
    2.9029129073e-02    1.0191858594e+05
    2.9047204182e-02    1.0191934375e+05
    2.9065268114e-02    1.0191542969e+05
    2.9083315283e-02    1.0191450000e+05
    2.9101338238e-02    1.0191353906e+05
    2.9119335115e-02    1.0191372656e+05
    2.9137304053e-02    1.0191749219e+05
    2.9155241325e-02    1.0192153906e+05
    2.9173148796e-02    1.0192227344e+05
    2.9191024601e-02    1.0192059375e+05
    2.9208874330e-02    1.0191628125e+05
    2.9226697981e-02    1.0191410156e+05
    2.9244501144e-02    1.0191413281e+05
    2.9262285680e-02    1.0191646875e+05
    2.9280053452e-02    1.0191550000e+05
    2.9297806323e-02    1.0192066406e+05
    2.9315544292e-02    1.0192475781e+05
    2.9333265498e-02    1.0192775781e+05
    2.9350971803e-02    1.0192492969e+05
    2.9368655756e-02    1.0192003906e+05
    2.9386319220e-02    1.0191957031e+05
    2.9403960332e-02    1.0193053906e+05
    2.9421577230e-02    1.0192681250e+05
    2.9439168051e-02    1.0192978125e+05
    2.9456734657e-02    1.0193267969e+05
    2.9474277049e-02    1.0192983594e+05
    2.9491795227e-02    1.0193392969e+05
    2.9509292915e-02    1.0193328906e+05
    2.9526771978e-02    1.0193044531e+05
    2.9544232413e-02    1.0193560156e+05
    2.9561674222e-02    1.0193639844e+05
    2.9579099268e-02    1.0193965625e+05
    2.9596509412e-02    1.0193860156e+05
    2.9613900930e-02    1.0194231250e+05
    2.9631273821e-02    1.0194536719e+05
    2.9648626223e-02    1.0195083594e+05
    2.9665958136e-02    1.0195621094e+05
    2.9683271423e-02    1.0195469531e+05
    2.9700560495e-02    1.0195435156e+05
    2.9717829078e-02    1.0195747656e+05
    2.9735075310e-02    1.0195578125e+05
    2.9752301052e-02    1.0195761719e+05
    2.9769508168e-02    1.0195712500e+05
    2.9786696658e-02    1.0196822656e+05
    2.9803866521e-02    1.0196439844e+05
    2.9821017757e-02    1.0196508594e+05
    2.9838152230e-02    1.0196553906e+05
    2.9855269939e-02    1.0196839844e+05
    2.9872370884e-02    1.0197016406e+05
    2.9889453202e-02    1.0197205469e+05
    2.9906518757e-02    1.0197393750e+05
    2.9923565686e-02    1.0197691406e+05
    2.9940593988e-02    1.0197775781e+05
    2.9957601801e-02    1.0197847656e+05
    2.9974590987e-02    1.0198140625e+05
    2.9991561547e-02    1.0198333594e+05
    3.0008511618e-02    1.0198525781e+05
    3.0025444925e-02    1.0198694531e+05
    3.0042361468e-02    1.0198946094e+05
    3.0059259385e-02    1.0198947656e+05
    3.0076142401e-02    1.0198368750e+05
    3.0093006790e-02    1.0198107031e+05
    3.0109854415e-02    1.0199239844e+05
    3.0126683414e-02    1.0199352344e+05
    3.0143497512e-02    1.0199461719e+05
    3.0160292983e-02    1.0199455469e+05
    3.0177071691e-02    1.0199671094e+05
    3.0193833634e-02    1.0199764844e+05
    3.0210576952e-02    1.0199400000e+05
    3.0227303505e-02    1.0199592969e+05
    3.0244011432e-02    1.0199797656e+05
    3.0260702595e-02    1.0199894531e+05
    3.0277376994e-02    1.0199989844e+05
    3.0294034630e-02    1.0199856250e+05
    3.0310675502e-02    1.0200166406e+05
    3.0327299610e-02    1.0200246094e+05
    3.0343905091e-02    1.0200327344e+05
    3.0360495672e-02    1.0200406250e+05
    3.0377071351e-02    1.0200486719e+05
    3.0393628404e-02    1.0200564844e+05
    3.0410168692e-02    1.0200650000e+05
    3.0426690355e-02    1.0200737500e+05
    3.0443195254e-02    1.0200843750e+05
    3.0459685251e-02    1.0200846875e+05
    3.0476156622e-02    1.0201096094e+05
    3.0492611229e-02    1.0201246094e+05
    3.0509050936e-02    1.0201181250e+05
    3.0525473878e-02    1.0201805469e+05
    3.0541881919e-02    1.0201758594e+05
    3.0558273196e-02    1.0201924219e+05
    3.0574647710e-02    1.0201846875e+05
    3.0591005459e-02    1.0201971094e+05
    3.0607348308e-02    1.0202071094e+05
    3.0623674393e-02    1.0201799219e+05
    3.0639985576e-02    1.0201260156e+05
    3.0656279996e-02    1.0201283594e+05
    3.0672557652e-02    1.0201200000e+05
    3.0688818544e-02    1.0201228906e+05
    3.0705062672e-02    1.0201835156e+05
    3.0721291900e-02    1.0201167969e+05
    3.0737506226e-02    1.0201147656e+05
    3.0753703788e-02    1.0201082031e+05
    3.0769886449e-02    1.0200291406e+05
    3.0786054209e-02    1.0199653906e+05
    3.0802207068e-02    1.0198778906e+05
    3.0818343163e-02    1.0198555469e+05
    3.0834466219e-02    1.0198327344e+05
    3.0850572512e-02    1.0197971875e+05
    3.0866663903e-02    1.0197380469e+05
    3.0882738531e-02    1.0196672656e+05
    3.0898798257e-02    1.0196406250e+05
    3.0914843082e-02    1.0196260156e+05
    3.0930871144e-02    1.0196110156e+05
    3.0946886167e-02    1.0195842969e+05
    3.0962884426e-02    1.0195565625e+05
    3.0978867784e-02    1.0195147656e+05
    3.0994836241e-02    1.0194709375e+05
    3.1010789797e-02    1.0193925781e+05
    3.1026728451e-02    1.0193677344e+05
    3.1042650342e-02    1.0193187500e+05
    3.1058559194e-02    1.0192806250e+05
    3.1074455008e-02    1.0192452344e+05
    3.1090334058e-02    1.0192594531e+05
    3.1106200069e-02    1.0192672656e+05
    3.1122051179e-02    1.0192697656e+05
    3.1137887388e-02    1.0193589844e+05
    3.1153710559e-02    1.0193514844e+05
    3.1169516966e-02    1.0194397656e+05
    3.1185310334e-02    1.0194408594e+05
    3.1201090664e-02    1.0194933594e+05
    3.1216854230e-02    1.0195253906e+05
    3.1232602894e-02    1.0196439844e+05
    3.1248336658e-02    1.0196767969e+05
    3.1264055520e-02    1.0198181250e+05
    3.1279761344e-02    1.0198277344e+05
    3.1295452267e-02    1.0199566406e+05
    3.1311132014e-02    1.0200211719e+05
    3.1326796860e-02    1.0201015625e+05
    3.1342446804e-02    1.0201596094e+05
    3.1358085573e-02    1.0202521875e+05
    3.1373709440e-02    1.0202777344e+05
    3.1389318407e-02    1.0203371875e+05
    3.1404916197e-02    1.0203728906e+05
    3.1420499086e-02    1.0204194531e+05
    3.1436067075e-02    1.0204432031e+05
    3.1451620162e-02    1.0205131250e+05
    3.1467158347e-02    1.0205613281e+05
    3.1482685357e-02    1.0206105469e+05
    3.1498193741e-02    1.0206384375e+05
    3.1513694674e-02    1.0207597656e+05
    3.1529176980e-02    1.0207422656e+05
    3.1544648111e-02    1.0207938281e+05
    3.1560108066e-02    1.0208677344e+05
    3.1575553119e-02    1.0208949219e+05
    3.1590986997e-02    1.0209416406e+05
    3.1606405973e-02    1.0209603906e+05
    3.1621813774e-02    1.0209544531e+05
    3.1637206674e-02    1.0209191406e+05
    3.1652588397e-02    1.0209041406e+05
    3.1667951494e-02    1.0209422656e+05
    3.1683307141e-02    1.0209553125e+05
    3.1698647887e-02    1.0209771094e+05
    3.1713977456e-02    1.0209282031e+05
    3.1729292125e-02    1.0208975781e+05
    3.1744595617e-02    1.0209346094e+05
    3.1759884208e-02    1.0209344531e+05
    3.1775161624e-02    1.0208414844e+05
    3.1790427864e-02    1.0208707031e+05
    3.1805675477e-02    1.0208747656e+05
    3.1820915639e-02    1.0207728125e+05
    3.1836140901e-02    1.0207585156e+05
    3.1851354986e-02    1.0207650781e+05
    3.1866557896e-02    1.0207588281e+05
    3.1881745905e-02    1.0207411719e+05
    3.1896922737e-02    1.0207565625e+05
    3.1912088394e-02    1.0207364844e+05
    3.1927239150e-02    1.0207152344e+05
    3.1942378730e-02    1.0207038281e+05
    3.1957507133e-02    1.0206459375e+05
    3.1972620636e-02    1.0206117969e+05
    3.1987726688e-02    1.0205774219e+05
    3.2002814114e-02    1.0206128125e+05
    3.2017890364e-02    1.0205558594e+05
    3.2032959163e-02    1.0205902344e+05
    3.2048013061e-02    1.0205578125e+05
    3.2063052058e-02    1.0205228906e+05
    3.2078083605e-02    1.0205308594e+05
    3.2093103975e-02    1.0205128906e+05
    3.2108109444e-02    1.0204110156e+05
    3.2123107463e-02    1.0203774219e+05
    3.2138090581e-02    1.0203560156e+05
    3.2153062522e-02    1.0204290625e+05
    3.2168023288e-02    1.0204131250e+05
    3.2182972878e-02    1.0203996094e+05
    3.2197911292e-02    1.0204097656e+05
    3.2212834805e-02    1.0203775781e+05
    3.2227750868e-02    1.0203927344e+05
    3.2242652029e-02    1.0204537500e+05
    3.2257542014e-02    1.0204581250e+05
    3.2272424549e-02    1.0204637500e+05
    3.2287292182e-02    1.0204578906e+05
    3.2302148640e-02    1.0204525781e+05
    3.2316997647e-02    1.0204121875e+05
    3.2331831753e-02    1.0204182031e+05
    3.2346658409e-02    1.0204375781e+05
    3.2361470163e-02    1.0204113281e+05
    3.2376270741e-02    1.0203855469e+05
    3.2391063869e-02    1.0204035156e+05
    3.2405842096e-02    1.0204096094e+05
    3.2420612872e-02    1.0203932031e+05
    3.2435368747e-02    1.0204008594e+05
    3.2450113446e-02    1.0204096094e+05
    3.2464850694e-02    1.0204078906e+05
    3.2479573041e-02    1.0203837500e+05
    3.2494287938e-02    1.0204050781e+05
    3.2508991659e-02    1.0204028906e+05
    3.2523684204e-02    1.0203771875e+05
    3.2538365573e-02    1.0203738281e+05
    3.2553035766e-02    1.0203463281e+05
    3.2567698509e-02    1.0203427344e+05
    3.2582346350e-02    1.0203607031e+05
    3.2596986741e-02    1.0203560156e+05
    3.2611619681e-02    1.0203630469e+05
    3.2626237720e-02    1.0203233594e+05
    3.2640848309e-02    1.0202577344e+05
    3.2655447721e-02    1.0202372656e+05
    3.2670035958e-02    1.0202272656e+05
    3.2684613019e-02    1.0201941406e+05
    3.2699178904e-02    1.0201828125e+05
    3.2713737339e-02    1.0201932031e+05
    3.2728284597e-02    1.0201578125e+05
    3.2742820680e-02    1.0201213281e+05
    3.2757349312e-02    1.0200594531e+05
    3.2771866769e-02    1.0201130469e+05
    3.2786373049e-02    1.0200964844e+05
    3.2800871879e-02    1.0200661719e+05
    3.2815355808e-02    1.0200130469e+05
    3.2829832286e-02    1.0200415625e+05
    3.2844301313e-02    1.0200235156e+05
    3.2858755440e-02    1.0199841406e+05
    3.2873202115e-02    1.0199443750e+05
    3.2887637615e-02    1.0199381250e+05
    3.2902065665e-02    1.0199772656e+05
    3.2916482538e-02    1.0199603906e+05
    3.2930891961e-02    1.0199208594e+05
    3.2945290208e-02    1.0199047656e+05
    3.2959677279e-02    1.0199014844e+05
    3.2974056900e-02    1.0199010156e+05
    3.2988425344e-02    1.0198914844e+05
    3.3002786338e-02    1.0199314844e+05
    3.3017136157e-02    1.0199519531e+05
    3.3031478524e-02    1.0200012500e+05
    3.3045809716e-02    1.0200294531e+05
    3.3060129732e-02    1.0200611719e+05
    3.3074442297e-02    1.0201185156e+05
    3.3088747412e-02    1.0201072656e+05
    3.3103041351e-02    1.0201410156e+05
    3.3117324114e-02    1.0201510156e+05
    3.3131599426e-02    1.0201262500e+05
    3.3145863563e-02    1.0201460156e+05
    3.3160120249e-02    1.0201309375e+05
    3.3174365759e-02    1.0201635156e+05
    3.3188603818e-02    1.0201992969e+05
    3.3202830702e-02    1.0202116406e+05
    3.3217050135e-02    1.0202244531e+05
    3.3231258392e-02    1.0202388281e+05
    3.3245459199e-02    1.0202531250e+05
    3.3259648830e-02    1.0202678125e+05
    3.3273831010e-02    1.0202705469e+05
    3.3288005739e-02    1.0202962500e+05
    3.3302169293e-02    1.0203103906e+05
    3.3316325396e-02    1.0203121094e+05
    3.3330474049e-02    1.0203358594e+05
    3.3344611526e-02    1.0203464844e+05
    3.3358741552e-02    1.0203100000e+05
    3.3372864127e-02    1.0203052344e+05
    3.3386975527e-02    1.0202744531e+05
    3.3401079476e-02    1.0202418750e+05
    3.3415172249e-02    1.0202544531e+05
    3.3429257572e-02    1.0202442969e+05
    3.3443335444e-02    1.0202577344e+05
    3.3457405865e-02    1.0202600781e+05
    3.3471468836e-02    1.0202399219e+05
    3.3485524356e-02    1.0202656250e+05
    3.3499568701e-02    1.0202680469e+05
    3.3513605595e-02    1.0202460156e+05
    3.3527631313e-02    1.0202449219e+05
    3.3541653305e-02    1.0202410156e+05
    3.3555664122e-02    1.0202122656e+05
    3.3569667488e-02    1.0201552344e+05
    3.3583663404e-02    1.0201419531e+05
    3.3597648144e-02    1.0200816406e+05
    3.3611625433e-02    1.0200405469e+05
    3.3625595272e-02    1.0200243750e+05
    3.3639557660e-02    1.0200809375e+05
    3.3653512597e-02    1.0200711719e+05
    3.3667460084e-02    1.0200527344e+05
    3.3681396395e-02    1.0201036719e+05
    3.3695328981e-02    1.0200552344e+05
    3.3709254116e-02    1.0200733594e+05
    3.3723168075e-02    1.0200452344e+05
    3.3737078309e-02    1.0200614844e+05
    3.3750977367e-02    1.0200428125e+05
    3.3764872700e-02    1.0200460156e+05
    3.3778760582e-02    1.0200377344e+05
    3.3792637289e-02    1.0200178906e+05
    3.3806510270e-02    1.0200211719e+05
    3.3820372075e-02    1.0200128906e+05
    3.3834230155e-02    1.0200262500e+05
    3.3848077059e-02    1.0199239844e+05
    3.3861916512e-02    1.0198889844e+05
    3.3875752240e-02    1.0198772656e+05
    3.3889576793e-02    1.0198894531e+05
    3.3903393894e-02    1.0199725000e+05
    3.3917203546e-02    1.0199659375e+05
    3.3931009471e-02    1.0199600000e+05
    3.3944804221e-02    1.0199535156e+05
    3.3958595246e-02    1.0199339844e+05
    3.3972378820e-02    1.0198682031e+05
    3.3986151218e-02    1.0198108594e+05
    3.3999919891e-02    1.0197996094e+05
    3.4013681114e-02    1.0197871875e+05
    3.4027434886e-02    1.0197743750e+05
    3.4041177481e-02    1.0197603125e+05
    3.4054916352e-02    1.0197680469e+05
    3.4068647772e-02    1.0197297656e+05
    3.4082375467e-02    1.0197137500e+05
    3.4096091986e-02    1.0196983594e+05
    3.4109804779e-02    1.0196827344e+05
    3.4123510122e-02    1.0196671094e+05
    3.4137208015e-02    1.0196517969e+05
    3.4150898457e-02    1.0196133594e+05
    3.4164581448e-02    1.0195957031e+05
    3.4178260714e-02    1.0195532031e+05
    3.4191932529e-02    1.0194606250e+05
    3.4205596894e-02    1.0194368750e+05
    3.4219253808e-02    1.0194128906e+05
    3.4232903272e-02    1.0194342969e+05
    3.4246545285e-02    1.0194343750e+05
    3.4260183573e-02    1.0193887500e+05
    3.4273810685e-02    1.0193896875e+05
    3.4287434071e-02    1.0193447656e+05
    3.4301050007e-02    1.0193235156e+05
    3.4314658493e-02    1.0192671094e+05
    3.4328263253e-02    1.0192714844e+05
    3.4341860563e-02    1.0193117969e+05
    3.4355450422e-02    1.0192964844e+05
    3.4369036555e-02    1.0192562500e+05
    3.4382611513e-02    1.0192169531e+05
    3.4396182746e-02    1.0191537500e+05
    3.4409742802e-02    1.0192043750e+05
    3.4423299134e-02    1.0192306250e+05
    3.4436848015e-02    1.0191885156e+05
    3.4450393170e-02    1.0191227344e+05
    3.4463927150e-02    1.0190653906e+05
    3.4477461129e-02    1.0190536719e+05
    3.4490987659e-02    1.0190536719e+05
    3.4504506737e-02    1.0190338281e+05
    3.4518022090e-02    1.0190803906e+05
    3.4531529993e-02    1.0189450781e+05
    3.4545030445e-02    1.0189467969e+05
    3.4558523446e-02    1.0189377344e+05
    3.4572008997e-02    1.0189994531e+05
    3.4585487098e-02    1.0189811719e+05
    3.4598957747e-02    1.0188722656e+05
    3.4612424672e-02    1.0188531250e+05
    3.4625884145e-02    1.0188124219e+05
    3.4639336169e-02    1.0187955469e+05
    3.4652780741e-02    1.0188938281e+05
    3.4666225314e-02    1.0188556250e+05
    3.4679658711e-02    1.0187706250e+05
    3.4693088382e-02    1.0187552344e+05
    3.4706510603e-02    1.0187634375e+05
    3.4719929099e-02    1.0188152344e+05
    3.4733340144e-02    1.0187764844e+05
    3.4746743739e-02    1.0187353125e+05
    3.4760143608e-02    1.0186697656e+05
    3.4773536026e-02    1.0186250000e+05
    3.4786924720e-02    1.0186022656e+05
    3.4800305963e-02    1.0185803125e+05
    3.4813679755e-02    1.0185814844e+05
    3.4827046096e-02    1.0185377344e+05
    3.4840408713e-02    1.0185172656e+05
    3.4853763878e-02    1.0185086719e+05
    3.4867111593e-02    1.0184788281e+05
    3.4880455583e-02    1.0185288281e+05
    3.4893795848e-02    1.0185238281e+05
    3.4907124937e-02    1.0184364844e+05
    3.4920454025e-02    1.0184050781e+05
    3.4933775663e-02    1.0183853906e+05
    3.4947093576e-02    1.0183660156e+05
    3.4960404038e-02    1.0183459375e+05
    3.4973710775e-02    1.0183267969e+05
    3.4987010062e-02    1.0183083594e+05
endcurve
