Curveplot
LS-DYNA keyword deck by LS-PrePost                          
Time
Pressure
Defined Connection
Pressure @ 79 #pts=1745
* Minval=     9.9855031250e+04 at time=         0.0174876265
* Maxval=     1.6673217188e+05 at time=         0.0075258887
    0.0000000000e+00    9.9998710938e+04
    3.3812357287e-05    9.9998710938e+04
    6.1326652940e-05    9.9996585938e+04
    8.9102875791e-05    1.0000119531e+05
    1.1682785407e-04    9.9996882812e+04
    1.4461828687e-04    9.9999414062e+04
    1.7236733402e-04    1.0000216406e+05
    2.0016246708e-04    1.0000052344e+05
    2.2795486439e-04    1.0000322656e+05
    2.5574557367e-04    1.0000142969e+05
    2.8353667585e-04    1.0000167969e+05
    3.1133697485e-04    9.9999539062e+04
    3.3912662184e-04    1.0000168750e+05
    3.6691734567e-04    9.9999273438e+04
    3.9470891352e-04    1.0000140625e+05
    4.2249175021e-04    9.9996601562e+04
    4.5027161832e-04    9.9998570312e+04
    4.7804549104e-04    1.0000064844e+05
    5.0581363030e-04    1.0000075000e+05
    5.3357944125e-04    1.0000077344e+05
    5.6134146871e-04    1.0000078906e+05
    5.8909942163e-04    1.0000078906e+05
    6.1685312539e-04    1.0000067969e+05
    6.4460188150e-04    1.0000058594e+05
    6.7234638846e-04    1.0000064844e+05
    7.0008635521e-04    1.0000071094e+05
    7.2782178177e-04    1.0000047656e+05
    7.5555208605e-04    9.9997750000e+04
    7.8327720985e-04    9.9995445312e+04
    8.1099680392e-04    1.0000146094e+05
    8.3871174138e-04    1.0000049219e+05
    8.6642213864e-04    1.0000075781e+05
    8.9412782108e-04    1.0000450000e+05
    9.2182843946e-04    1.0000265625e+05
    9.4952445943e-04    1.0000143750e+05
    9.7721535712e-04    9.9996656250e+04
    1.0049008997e-03    9.9998601562e+04
    1.0325826006e-03    1.0000102344e+05
    1.0602590628e-03    1.0000160156e+05
    1.0879321489e-03    1.0000210156e+05
    1.1155996472e-03    9.9999851562e+04
    1.1432634201e-03    9.9992757812e+04
    1.1709230021e-03    1.0000157031e+05
    1.1985785095e-03    1.0000158594e+05
    1.2262313394e-03    1.0000183594e+05
    1.2538790470e-03    1.0000028125e+05
    1.2815232622e-03    1.0000443750e+05
    1.3091630535e-03    1.0000539844e+05
    1.3368004002e-03    1.0000372656e+05
    1.3644339051e-03    1.0000583594e+05
    1.3920635683e-03    1.0002690625e+05
    1.4196902048e-03    1.0005322656e+05
    1.4473132323e-03    1.0010656250e+05
    1.4749332331e-03    1.0019664844e+05
    1.5025498578e-03    1.0032581250e+05
    1.5301633393e-03    1.0051334375e+05
    1.5577742597e-03    1.0077350781e+05
    1.5853822697e-03    1.0108928906e+05
    1.6129877185e-03    1.0146706250e+05
    1.6405890929e-03    1.0186584375e+05
    1.6681876732e-03    1.0225416406e+05
    1.6957829939e-03    1.0259503906e+05
    1.7233766848e-03    1.0286746094e+05
    1.7509678146e-03    1.0305039844e+05
    1.7785291420e-03    1.0314428906e+05
    1.8060547300e-03    1.0314081250e+05
    1.8335470231e-03    1.0305487500e+05
    1.8610082334e-03    1.0291256250e+05
    1.8884401070e-03    1.0274911719e+05
    1.9158447394e-03    1.0258047656e+05
    1.9432241097e-03    1.0241933594e+05
    1.9705800805e-03    1.0229584375e+05
    1.9979148638e-03    1.0222052344e+05
    2.0252298564e-03    1.0219391406e+05
    2.0525271539e-03    1.0221166406e+05
    2.0798076876e-03    1.0227288281e+05
    2.1070730872e-03    1.0234567969e+05
    2.1343247499e-03    1.0242122656e+05
    2.1615643054e-03    1.0247746094e+05
    2.1887931507e-03    1.0252518750e+05
    2.2160108201e-03    1.0254267969e+05
    2.2432196420e-03    1.0254135156e+05
    2.2704207804e-03    1.0251784375e+05
    2.2976147011e-03    1.0247490625e+05
    2.3248014040e-03    1.0243877344e+05
    2.3519827519e-03    1.0241428906e+05
    2.3791582789e-03    1.0239436719e+05
    2.4063293822e-03    1.0238657031e+05
    2.4334960617e-03    1.0238805469e+05
    2.4606597144e-03    1.0240002344e+05
    2.4878205732e-03    1.0241190625e+05
    2.5149781723e-03    1.0242903906e+05
    2.5421329774e-03    1.0244238281e+05
    2.5692859199e-03    1.0244250781e+05
    2.5964374654e-03    1.0244281250e+05
    2.6235871483e-03    1.0244308594e+05
    2.6507352013e-03    1.0243555469e+05
    2.6778825559e-03    1.0243353906e+05
    2.7050296776e-03    1.0242108594e+05
    2.7321761008e-03    1.0241613281e+05
    2.7593218256e-03    1.0242046094e+05
    2.7864677832e-03    1.0242175000e+05
    2.8136142064e-03    1.0242633594e+05
    2.8407603968e-03    1.0243602344e+05
    2.8679079842e-03    1.0243918750e+05
    2.8950548731e-03    1.0246187500e+05
    2.9222022276e-03    1.0248635156e+05
    2.9493502807e-03    1.0252037500e+05
    2.9764990322e-03    1.0257052344e+05
    3.0036487151e-03    1.0263543750e+05
    3.0307997949e-03    1.0272455469e+05
    3.0579508748e-03    1.0281402344e+05
    3.0851035845e-03    1.0291780469e+05
    3.1122572254e-03    1.0302837500e+05
    3.1394117977e-03    1.0312411719e+05
    3.1665677670e-03    1.0319958594e+05
    3.1937246677e-03    1.0325938281e+05
    3.2208829653e-03    1.0329982031e+05
    3.2480424270e-03    1.0330671875e+05
    3.2752046827e-03    1.0329061719e+05
    3.2952371985e-03    1.0325482031e+05
    3.3145032357e-03    1.0322550781e+05
    3.3336398192e-03    1.0318503906e+05
    3.3528339118e-03    1.0314764844e+05
    3.3720366191e-03    1.0310180469e+05
    3.3912549261e-03    1.0306442969e+05
    3.4104890656e-03    1.0301642969e+05
    3.4297339153e-03    1.0297664844e+05
    3.4486323129e-03    1.0293040625e+05
    3.4671388566e-03    1.0288127344e+05
    3.4854323603e-03    1.0283046875e+05
    3.5036695190e-03    1.0276877344e+05
    3.5219141282e-03    1.0270628906e+05
    3.5401545465e-03    1.0263506250e+05
    3.5583588760e-03    1.0256475000e+05
    3.5765271168e-03    1.0249234375e+05
    3.5946895368e-03    1.0242927344e+05
    3.6139658187e-03    1.0237542969e+05
    3.6330535077e-03    1.0232563281e+05
    3.6521453876e-03    1.0228835156e+05
    3.6699753255e-03    1.0225255469e+05
    3.6875614896e-03    1.0222808594e+05
    3.7050142419e-03    1.0220591406e+05
    3.7224807311e-03    1.0219068750e+05
    3.7400643341e-03    1.0217666406e+05
    3.7577797193e-03    1.0216703906e+05
    3.7755726371e-03    1.0215841406e+05
    3.7933769636e-03    1.0214263281e+05
    3.8111612666e-03    1.0213791406e+05
    3.8289318327e-03    1.0213250781e+05
    3.8467168342e-03    1.0212391406e+05
    3.8645383902e-03    1.0211435156e+05
    3.8824023213e-03    1.0211060156e+05
    3.9002960548e-03    1.0210532031e+05
    3.9182156324e-03    1.0209363281e+05
    3.9361710660e-03    1.0207749219e+05
    3.9541716687e-03    1.0205866406e+05
    3.9733103476e-03    1.0204041406e+05
    3.9924201556e-03    1.0201346875e+05
    4.0104058571e-03    1.0199571094e+05
    4.0284004062e-03    1.0198328906e+05
    4.0464363992e-03    1.0197667969e+05
    4.0656095371e-03    1.0197709375e+05
    4.0847789496e-03    1.0197314844e+05
    4.1039343923e-03    1.0196083594e+05
    4.1219722480e-03    1.0195808594e+05
    4.1400394402e-03    1.0194643750e+05
    4.1591953486e-03    1.0193489844e+05
    4.1784178466e-03    1.0193032031e+05
    4.1976389475e-03    1.0192178906e+05
    4.2168586515e-03    1.0192052344e+05
    4.2360713705e-03    1.0191022656e+05
    4.2552771047e-03    1.0190230469e+05
    4.2744791135e-03    1.0188953906e+05
    4.2936825193e-03    1.0187834375e+05
    4.3128933758e-03    1.0186608594e+05
    4.3321144767e-03    1.0184566406e+05
    4.3513495475e-03    1.0183082031e+05
    4.3705995195e-03    1.0181928906e+05
    4.3898657896e-03    1.0180378906e+05
    4.4091497548e-03    1.0178265625e+05
    4.4284537435e-03    1.0175596094e+05
    4.4477786869e-03    1.0172167969e+05
    4.4671236537e-03    1.0167764844e+05
    4.4864914380e-03    1.0162289844e+05
    4.5058806427e-03    1.0155911719e+05
    4.5252908021e-03    1.0148572656e+05
    4.5447219163e-03    1.0140702344e+05
    4.5641721226e-03    1.0131621094e+05
    4.5836409554e-03    1.0121784375e+05
    4.6031279489e-03    1.0110328906e+05
    4.6226321720e-03    1.0098706250e+05
    4.6421540901e-03    1.0086137500e+05
    4.6616927721e-03    1.0073725781e+05
    4.6812482178e-03    1.0061046094e+05
    4.7008208930e-03    1.0050165625e+05
    4.7204112634e-03    1.0039653906e+05
    4.7400193289e-03    1.0030878906e+05
    4.7596455552e-03    1.0023363281e+05
    4.7792894766e-03    1.0017967969e+05
    4.7989510931e-03    1.0014507031e+05
    4.8186304048e-03    1.0014643750e+05
    4.8383255489e-03    1.0015908594e+05
    4.8580355942e-03    1.0019316406e+05
    4.8777610064e-03    1.0023357031e+05
    4.8975008540e-03    1.0028747656e+05
    4.9172551371e-03    1.0034412500e+05
    4.9370229244e-03    1.0040614844e+05
    4.9568060786e-03    1.0047371094e+05
    4.9766036682e-03    1.0052905469e+05
    4.9964170903e-03    1.0058142969e+05
    5.0162458792e-03    1.0061549219e+05
    5.0360900350e-03    1.0064121094e+05
    5.0559476949e-03    1.0066702344e+05
    5.0758207217e-03    1.0067315625e+05
    5.0957072526e-03    1.0067247656e+05
    5.1156077534e-03    1.0067450000e+05
    5.1355226897e-03    1.0066878125e+05
    5.1554525271e-03    1.0065578906e+05
    5.1753963344e-03    1.0063867969e+05
    5.1953555085e-03    1.0061711719e+05
    5.2153295837e-03    1.0059967969e+05
    5.2353194915e-03    1.0058052344e+05
    5.2553247660e-03    1.0056509375e+05
    5.2753463387e-03    1.0056535156e+05
    5.2953832783e-03    1.0057177344e+05
    5.3154369816e-03    1.0057752344e+05
    5.3355065174e-03    1.0058887500e+05
    5.3555918857e-03    1.0059402344e+05
    5.3756926209e-03    1.0060928906e+05
    5.3958082572e-03    1.0061607031e+05
    5.4159392603e-03    1.0062746094e+05
    5.4360851645e-03    1.0063639844e+05
    5.4562464356e-03    1.0064697656e+05
    5.4764230736e-03    1.0065482031e+05
    5.4966160096e-03    1.0066421094e+05
    5.5168238468e-03    1.0066830469e+05
    5.5370470509e-03    1.0066946094e+05
    5.5572865531e-03    1.0066991406e+05
    5.5775423534e-03    1.0066747656e+05
    5.5978130549e-03    1.0067152344e+05
    5.6181000546e-03    1.0067314844e+05
    5.6384028867e-03    1.0067253906e+05
    5.6587206200e-03    1.0067441406e+05
    5.6790532544e-03    1.0067677344e+05
    5.6994007900e-03    1.0067963281e+05
    5.7197632268e-03    1.0068266406e+05
    5.7401410304e-03    1.0068699219e+05
    5.7605337352e-03    1.0068905469e+05
    5.7809422724e-03    1.0069259375e+05
    5.8013652451e-03    1.0070096875e+05
    5.8218040504e-03    1.0070037500e+05
    5.8422577567e-03    1.0070881250e+05
    5.8627268299e-03    1.0070841406e+05
    5.8832112700e-03    1.0071228125e+05
    5.9037101455e-03    1.0071618750e+05
    5.9242248535e-03    1.0072472656e+05
    5.9447535314e-03    1.0073335156e+05
    5.9641525149e-03    1.0073728906e+05
    5.9830932878e-03    1.0073896875e+05
    6.0020405799e-03    1.0074514844e+05
    6.0210367665e-03    1.0074933594e+05
    6.0400799848e-03    1.0075396094e+05
    6.0591096990e-03    1.0076583594e+05
    6.0781282373e-03    1.0077364844e+05
    6.0972142965e-03    1.0078853906e+05
    6.1162756756e-03    1.0079441406e+05
    6.1353649944e-03    1.0079988281e+05
    6.1544459313e-03    1.0079575000e+05
    6.1734300107e-03    1.0079808594e+05
    6.1924448237e-03    1.0080485156e+05
    6.2115197070e-03    1.0081890625e+05
    6.2306127511e-03    1.0082228906e+05
    6.2497169711e-03    1.0084003906e+05
    6.2688281760e-03    1.0085857031e+05
    6.2879407778e-03    1.0086402344e+05
    6.3070552424e-03    1.0087909375e+05
    6.3261794858e-03    1.0089247656e+05
    6.3453060575e-03    1.0090888281e+05
    6.3644465990e-03    1.0092955469e+05
    6.3835908659e-03    1.0094890625e+05
    6.4027444459e-03    1.0097025781e+05
    6.4219115302e-03    1.0099221094e+05
    6.4410855994e-03    1.0100416406e+05
    6.4602680504e-03    1.0101833594e+05
    6.4794607460e-03    1.0103124219e+05
    6.4986641519e-03    1.0103706250e+05
    6.5178787336e-03    1.0104489844e+05
    6.5371058881e-03    1.0105937500e+05
    6.5563363023e-03    1.0107127344e+05
    6.5755699761e-03    1.0107558594e+05
    6.5948092379e-03    1.0107536719e+05
    6.6140629351e-03    1.0107494531e+05
    6.6333152354e-03    1.0107196875e+05
    6.6525745206e-03    1.0106664844e+05
    6.6718445159e-03    1.0106494531e+05
    6.6911154427e-03    1.0106041406e+05
    6.7104012705e-03    1.0106446094e+05
    6.7296870984e-03    1.0106838281e+05
    6.7489854991e-03    1.0107202344e+05
    6.7682852969e-03    1.0107536719e+05
    6.7875892855e-03    1.0106791406e+05
    6.8069072440e-03    1.0107119531e+05
    6.8262196146e-03    1.0106366406e+05
    6.8455408327e-03    1.0106259375e+05
    6.8648783490e-03    1.0105668750e+05
    6.8842126057e-03    1.0105752344e+05
    6.9035501219e-03    1.0105847656e+05
    6.9228983484e-03    1.0105953906e+05
    6.9422605447e-03    1.0106064844e+05
    6.9616222754e-03    1.0106262500e+05
    6.9809844717e-03    1.0105277344e+05
    7.0003494620e-03    1.0105265625e+05
    7.0197195746e-03    1.0105216406e+05
    7.0390999317e-03    1.0105138281e+05
    7.0584909990e-03    1.0105282031e+05
    7.0778946392e-03    1.0104750781e+05
    7.0973108523e-03    1.0104927344e+05
    7.1167377755e-03    1.0104899219e+05
    7.1361698210e-03    1.0104653125e+05
    7.1556069888e-03    1.0105591406e+05
    7.1750483476e-03    1.0105896094e+05
    7.1944966912e-03    1.0106605469e+05
    7.2139529511e-03    1.0107883594e+05
    7.2334166616e-03    1.0110678906e+05
    7.2528840974e-03    1.0116860156e+05
    7.2723543271e-03    1.0129609375e+05
    7.2918278165e-03    1.0154300000e+05
    7.3113050312e-03    1.0203503906e+05
    7.3307845742e-03    1.0299021094e+05
    7.3502692394e-03    1.0478440625e+05
    7.3697618209e-03    1.0793971094e+05
    7.3892641813e-03    1.1305066406e+05
    7.4087800458e-03    1.2050535156e+05
    7.4282912537e-03    1.3012834375e+05
    7.4477996677e-03    1.4091068750e+05
    7.4673094787e-03    1.5122896875e+05
    7.4868267402e-03    1.5944064062e+05
    7.5063589029e-03    1.6460814062e+05
    7.5258887373e-03    1.6673217188e+05
    7.5454111211e-03    1.6654975000e+05
    7.5649353676e-03    1.6504548438e+05
    7.5844703242e-03    1.6308970312e+05
    7.6040057465e-03    1.6132451562e+05
    7.6235276647e-03    1.5994579688e+05
    7.6430505142e-03    1.5888481250e+05
    7.6625877991e-03    1.5795495312e+05
    7.6821087860e-03    1.5695529688e+05
    7.7016241848e-03    1.5572468750e+05
    7.7211544849e-03    1.5425396875e+05
    7.7406810597e-03    1.5256585938e+05
    7.7602043748e-03    1.5077470312e+05
    7.7797495760e-03    1.4897581250e+05
    7.7992938459e-03    1.4725429688e+05
    7.8188432381e-03    1.4563223438e+05
    7.8384252265e-03    1.4414276562e+05
    7.8580006957e-03    1.4272990625e+05
    7.8775910661e-03    1.4138364062e+05
    7.8972103074e-03    1.4005703125e+05
    7.9168286175e-03    1.3874290625e+05
    7.9364804551e-03    1.3745196875e+05
    7.9561360180e-03    1.3618487500e+05
    7.9758102074e-03    1.3496625000e+05
    7.9955114052e-03    1.3381014062e+05
    8.0152126029e-03    1.3271365625e+05
    8.0349491909e-03    1.3169950000e+05
    8.0546662211e-03    1.3075111719e+05
    8.0743944272e-03    1.2987664844e+05
    8.0941170454e-03    1.2904121875e+05
    8.1138620153e-03    1.2825581250e+05
    8.1336386502e-03    1.2750378906e+05
    8.1534720957e-03    1.2678581250e+05
    8.1733558327e-03    1.2609131250e+05
    8.1932730973e-03    1.2543705469e+05
    8.2132071257e-03    1.2481627344e+05
    8.2330890000e-03    1.2423603906e+05
    8.2529615611e-03    1.2368785156e+05
    8.2727763802e-03    1.2318446875e+05
    8.2926023751e-03    1.2270302344e+05
    8.3124246448e-03    1.2224641406e+05
    8.3322748542e-03    1.2180983594e+05
    8.3521194756e-03    1.2139833594e+05
    8.3719678223e-03    1.2099746094e+05
    8.3917891607e-03    1.2061816406e+05
    8.4116021171e-03    1.2025597656e+05
    8.4314141423e-03    1.1992000000e+05
    8.4512168542e-03    1.1959957031e+05
    8.4710381925e-03    1.1929853906e+05
    8.4908353165e-03    1.1901942969e+05
    8.5106678307e-03    1.1875718750e+05
    8.5304882377e-03    1.1850353906e+05
    8.5503393784e-03    1.1826453906e+05
    8.5699046031e-03    1.1803321094e+05
    8.5892248899e-03    1.1782041406e+05
    8.6083402857e-03    1.1761531250e+05
    8.6272666231e-03    1.1742112500e+05
    8.6460309103e-03    1.1723956250e+05
    8.6646731943e-03    1.1706512500e+05
    8.6832325906e-03    1.1690269531e+05
    8.7017398328e-03    1.1674533594e+05
    8.7202098221e-03    1.1659210156e+05
    8.7386453524e-03    1.1644528906e+05
    8.7570473552e-03    1.1629893750e+05
    8.7753897533e-03    1.1615921094e+05
    8.7936492637e-03    1.1601716406e+05
    8.8118780404e-03    1.1588560156e+05
    8.8300397620e-03    1.1575187500e+05
    8.8481390849e-03    1.1562478906e+05
    8.8662039489e-03    1.1550189844e+05
    8.8842641562e-03    1.1538266406e+05
    8.9023411274e-03    1.1527071094e+05
    8.9204348624e-03    1.1515446094e+05
    8.9385388419e-03    1.1504700781e+05
    8.9566456154e-03    1.1494363281e+05
    8.9747514576e-03    1.1483706250e+05
    8.9928600937e-03    1.1473146875e+05
    9.0109808370e-03    1.1463327344e+05
    9.0291155502e-03    1.1452983594e+05
    9.0472688898e-03    1.1442346875e+05
    9.0654399246e-03    1.1431294531e+05
    9.0836230665e-03    1.1420310156e+05
    9.1018192470e-03    1.1408764844e+05
    9.1200266033e-03    1.1396602344e+05
    9.1382460669e-03    1.1383746875e+05
    9.1564757749e-03    1.1370397656e+05
    9.1747231781e-03    1.1357202344e+05
    9.1929892078e-03    1.1343875781e+05
    9.2112747952e-03    1.1329678125e+05
    9.2295790091e-03    1.1315614844e+05
    9.2479009181e-03    1.1300852344e+05
    9.2662386596e-03    1.1286741406e+05
    9.2845931649e-03    1.1272540625e+05
    9.3029672280e-03    1.1258049219e+05
    9.3213599175e-03    1.1244237500e+05
    9.3397712335e-03    1.1230872656e+05
    9.3582011759e-03    1.1217739844e+05
    9.3766497448e-03    1.1205119531e+05
    9.3951150775e-03    1.1193952344e+05
    9.4135999680e-03    1.1183590625e+05
    9.4321016222e-03    1.1174678906e+05
    9.4506228343e-03    1.1166639844e+05
    9.4691645354e-03    1.1159910156e+05
    9.4877239317e-03    1.1154147656e+05
    9.5063010231e-03    1.1150178906e+05
    9.5248948783e-03    1.1146053906e+05
    9.5435054973e-03    1.1142709375e+05
    9.5621328801e-03    1.1138796094e+05
    9.5807760954e-03    1.1134664844e+05
    9.5994332805e-03    1.1131094531e+05
    9.6181081608e-03    1.1126789844e+05
    9.6367979422e-03    1.1122653906e+05
    9.6555035561e-03    1.1116863281e+05
    9.6742231399e-03    1.1110449219e+05
    9.6929576248e-03    1.1103097656e+05
    9.7117051482e-03    1.1095313281e+05
    9.7304685041e-03    1.1087197656e+05
    9.7492448986e-03    1.1079203906e+05
    9.7680361941e-03    1.1071252344e+05
    9.7868405282e-03    1.1063677344e+05
    9.8056588322e-03    1.1056381250e+05
    9.8244920373e-03    1.1049102344e+05
    9.8433364183e-03    1.1042239844e+05
    9.8621929064e-03    1.1036661719e+05
    9.8810633644e-03    1.1030950781e+05
    9.8999459296e-03    1.1025636719e+05
    9.9188406020e-03    1.1020452344e+05
    9.9377483130e-03    1.1016628906e+05
    9.9566690624e-03    1.1013633594e+05
    9.9756028503e-03    1.1009952344e+05
    9.9945487455e-03    1.1007247656e+05
    1.0013507679e-02    1.1004593750e+05
    1.0032479651e-02    1.1002286719e+05
    1.0051463731e-02    1.0998858594e+05
    1.0070459917e-02    1.0995259375e+05
    1.0089469142e-02    1.0990777344e+05
    1.0108492337e-02    1.0986528906e+05
    1.0127528571e-02    1.0981402344e+05
    1.0146577843e-02    1.0976303906e+05
    1.0165639222e-02    1.0972088281e+05
    1.0184712708e-02    1.0967503906e+05
    1.0203798302e-02    1.0963458594e+05
    1.0222896002e-02    1.0959353906e+05
    1.0242006741e-02    1.0955671094e+05
    1.0261129588e-02    1.0951758594e+05
    1.0280264542e-02    1.0948289844e+05
    1.0299413465e-02    1.0946013281e+05
    1.0318575427e-02    1.0943725000e+05
    1.0337748565e-02    1.0942472656e+05
    1.0356934741e-02    1.0940986719e+05
    1.0376133956e-02    1.0939305469e+05
    1.0395346209e-02    1.0937653125e+05
    1.0414571501e-02    1.0936539844e+05
    1.0433809832e-02    1.0934758594e+05
    1.0453061201e-02    1.0932897656e+05
    1.0472324677e-02    1.0930262500e+05
    1.0491601191e-02    1.0927703906e+05
    1.0510892607e-02    1.0924503125e+05
    1.0530196130e-02    1.0920880469e+05
    1.0549513623e-02    1.0916966406e+05
    1.0568842292e-02    1.0912383594e+05
    1.0588183999e-02    1.0907621094e+05
    1.0607538745e-02    1.0901939844e+05
    1.0626907460e-02    1.0895296875e+05
    1.0646289214e-02    1.0888760156e+05
    1.0665684007e-02    1.0881935156e+05
    1.0685092770e-02    1.0874696094e+05
    1.0704516433e-02    1.0866674219e+05
    1.0723951273e-02    1.0858125781e+05
    1.0743400082e-02    1.0848685156e+05
    1.0762862861e-02    1.0838165625e+05
    1.0782338679e-02    1.0827094531e+05
    1.0801829398e-02    1.0815855469e+05
    1.0821334086e-02    1.0804266406e+05
    1.0840852745e-02    1.0791208594e+05
    1.0860386305e-02    1.0777993750e+05
    1.0879932903e-02    1.0763732031e+05
    1.0899493471e-02    1.0749183594e+05
    1.0919069871e-02    1.0735078906e+05
    1.0938662104e-02    1.0720486719e+05
    1.0958270170e-02    1.0706372656e+05
    1.0977892205e-02    1.0692491406e+05
    1.0997531936e-02    1.0678842969e+05
    1.1017187499e-02    1.0665697656e+05
    1.1036860757e-02    1.0653344531e+05
    1.1056551710e-02    1.0641636719e+05
    1.1076259427e-02    1.0630000781e+05
    1.1095987633e-02    1.0619908594e+05
    1.1115733534e-02    1.0610760156e+05
    1.1135498993e-02    1.0602392969e+05
    1.1155283079e-02    1.0595674219e+05
    1.1175086722e-02    1.0589825000e+05
    1.1194912717e-02    1.0584572656e+05
    1.1214758269e-02    1.0580966406e+05
    1.1234625243e-02    1.0577710156e+05
    1.1254511774e-02    1.0575822656e+05
    1.1274418794e-02    1.0574072656e+05
    1.1294347234e-02    1.0573296875e+05
    1.1314296164e-02    1.0572183594e+05
    1.1334266514e-02    1.0571321094e+05
    1.1354257353e-02    1.0571246094e+05
    1.1374268681e-02    1.0571577344e+05
    1.1394302361e-02    1.0571847656e+05
    1.1414355598e-02    1.0572060156e+05
    1.1434430256e-02    1.0572247656e+05
    1.1454525404e-02    1.0571418750e+05
    1.1474640109e-02    1.0570633594e+05
    1.1494777165e-02    1.0568902344e+05
    1.1514934711e-02    1.0565852344e+05
    1.1535113677e-02    1.0562564844e+05
    1.1555313133e-02    1.0558552344e+05
    1.1575534008e-02    1.0552860156e+05
    1.1595774442e-02    1.0545972656e+05
    1.1616035365e-02    1.0539206250e+05
    1.1636316776e-02    1.0530512500e+05
    1.1656619608e-02    1.0521730469e+05
    1.1676942930e-02    1.0512241406e+05
    1.1697287671e-02    1.0501675000e+05
    1.1717652902e-02    1.0491857031e+05
    1.1738038622e-02    1.0481691406e+05
    1.1758443899e-02    1.0472814844e+05
    1.1778870597e-02    1.0465108594e+05
    1.1799318716e-02    1.0458003906e+05
    1.1819788255e-02    1.0453033594e+05
    1.1840280145e-02    1.0448946875e+05
    1.1860790662e-02    1.0446261719e+05
    1.1881321669e-02    1.0444900781e+05
    1.1901874095e-02    1.0444625781e+05
    1.1922447011e-02    1.0445585156e+05
    1.1943042278e-02    1.0445630469e+05
    1.1963658035e-02    1.0446064844e+05
    1.1984295212e-02    1.0445896094e+05
    1.2004952878e-02    1.0445131250e+05
    1.2025631964e-02    1.0443560156e+05
    1.2046331540e-02    1.0441466406e+05
    1.2067052536e-02    1.0437964844e+05
    1.2087795883e-02    1.0434693750e+05
    1.2108558789e-02    1.0429489844e+05
    1.2129344046e-02    1.0424771094e+05
    1.2150149792e-02    1.0419162500e+05
    1.2170976959e-02    1.0414206250e+05
    1.2191825546e-02    1.0408978906e+05
    1.2212695554e-02    1.0403250000e+05
    1.2233586982e-02    1.0398196094e+05
    1.2254500762e-02    1.0392403906e+05
    1.2275436893e-02    1.0386490625e+05
    1.2296394445e-02    1.0381302344e+05
    1.2317374349e-02    1.0375941406e+05
    1.2338375673e-02    1.0371392969e+05
    1.2359398417e-02    1.0366511719e+05
    1.2380442582e-02    1.0362262500e+05
    1.2401508167e-02    1.0358186719e+05
    1.2422595173e-02    1.0354641406e+05
    1.2443703599e-02    1.0350959375e+05
    1.2464834377e-02    1.0347690625e+05
    1.2485986575e-02    1.0344821094e+05
    1.2507158332e-02    1.0341858594e+05
    1.2528351508e-02    1.0340014844e+05
    1.2549565174e-02    1.0338500781e+05
    1.2570801191e-02    1.0336972656e+05
    1.2592058629e-02    1.0335853906e+05
    1.2613337487e-02    1.0333700000e+05
    1.2634636834e-02    1.0331743750e+05
    1.2655957602e-02    1.0330065625e+05
    1.2677297927e-02    1.0326871094e+05
    1.2698660605e-02    1.0324482031e+05
    1.2720043771e-02    1.0321403906e+05
    1.2741449289e-02    1.0319003906e+05
    1.2762876227e-02    1.0315797656e+05
    1.2784325518e-02    1.0313035156e+05
    1.2805794366e-02    1.0310281250e+05
    1.2827285565e-02    1.0308917969e+05
    1.2848797254e-02    1.0309136719e+05
    1.2870330364e-02    1.0312450000e+05
    1.2891885825e-02    1.0319718750e+05
    1.2913462706e-02    1.0333660156e+05
    1.2935061008e-02    1.0354339844e+05
    1.2956679799e-02    1.0384115625e+05
    1.2978320010e-02    1.0425233594e+05
    1.2999981642e-02    1.0479302344e+05
    1.3021663763e-02    1.0547500781e+05
    1.3043368235e-02    1.0629422656e+05
    1.3065092266e-02    1.0723910156e+05
    1.3086837716e-02    1.0827031250e+05
    1.3108605519e-02    1.0932846875e+05
    1.3130392879e-02    1.1033724219e+05
    1.3152201660e-02    1.1122042969e+05
    1.3174032792e-02    1.1190277344e+05
    1.3195885345e-02    1.1234885156e+05
    1.3217759319e-02    1.1252622656e+05
    1.3239653781e-02    1.1245217969e+05
    1.3261569664e-02    1.1213847656e+05
    1.3283506967e-02    1.1162871094e+05
    1.3305463828e-02    1.1098816406e+05
    1.3327440247e-02    1.1026544531e+05
    1.3349435292e-02    1.0951733594e+05
    1.3371448033e-02    1.0880066406e+05
    1.3393475674e-02    1.0815644531e+05
    1.3415516354e-02    1.0762246875e+05
    1.3437564485e-02    1.0719608594e+05
    1.3459613547e-02    1.0686972656e+05
    1.3481658883e-02    1.0660810156e+05
    1.3503690250e-02    1.0637197656e+05
    1.3525702059e-02    1.0612669531e+05
    1.3547683135e-02    1.0584049219e+05
    1.3569628820e-02    1.0548985156e+05
    1.3591531664e-02    1.0507635156e+05
    1.3613392599e-02    1.0461432031e+05
    1.3635210693e-02    1.0411997656e+05
    1.3656994328e-02    1.0361660156e+05
    1.3678749092e-02    1.0313242969e+05
    1.3700488023e-02    1.0268344531e+05
    1.3722228818e-02    1.0229812500e+05
    1.3743981719e-02    1.0197560156e+05
    1.3765762560e-02    1.0171353906e+05
    1.3787578791e-02    1.0151596094e+05
    1.3809437864e-02    1.0136856250e+05
    1.3831341639e-02    1.0126841406e+05
    1.3853288256e-02    1.0119789844e+05
    1.3875273056e-02    1.0114841406e+05
    1.3897285797e-02    1.0111697656e+05
    1.3919321820e-02    1.0108399219e+05
    1.3941374607e-02    1.0104600000e+05
    1.3963440433e-02    1.0100268750e+05
    1.3985517435e-02    1.0094925000e+05
    1.4007603750e-02    1.0088547656e+05
    1.4029704034e-02    1.0081303906e+05
    1.4051820152e-02    1.0074266406e+05
    1.4073957689e-02    1.0067010156e+05
    1.4096121304e-02    1.0059303906e+05
    1.4118315652e-02    1.0052014844e+05
    1.4140545391e-02    1.0045122656e+05
    1.4162814245e-02    1.0038997656e+05
    1.4185124077e-02    1.0033115625e+05
    1.4207473956e-02    1.0028640625e+05
    1.4229862019e-02    1.0025162500e+05
    1.4252286404e-02    1.0022074219e+05
    1.4274741523e-02    1.0020834375e+05
    1.4297228307e-02    1.0021632031e+05
    1.4319745824e-02    1.0025121094e+05
    1.4342290349e-02    1.0032056250e+05
    1.4364863746e-02    1.0041342969e+05
    1.4387467876e-02    1.0052535156e+05
    1.4410103671e-02    1.0065240625e+05
    1.4432771131e-02    1.0077522656e+05
    1.4455472119e-02    1.0089844531e+05
    1.4478209428e-02    1.0100707031e+05
    1.4500979334e-02    1.0109961719e+05
    1.4523783699e-02    1.0117521094e+05
    1.4546621591e-02    1.0124489844e+05
    1.4569494873e-02    1.0130691406e+05
    1.4592399821e-02    1.0137387500e+05
    1.4615339227e-02    1.0143834375e+05
    1.4638305642e-02    1.0151372656e+05
    1.4661304653e-02    1.0159727344e+05
    1.4684336260e-02    1.0169702344e+05
    1.4707398601e-02    1.0179085156e+05
    1.4730494469e-02    1.0188258594e+05
    1.4753622934e-02    1.0196588281e+05
    1.4776783995e-02    1.0202761719e+05
    1.4799979515e-02    1.0207497656e+05
    1.4823205769e-02    1.0209977344e+05
    1.4846466482e-02    1.0211211719e+05
    1.4869757928e-02    1.0210735156e+05
    1.4893081971e-02    1.0209353906e+05
    1.4916437678e-02    1.0206561719e+05
    1.4939822257e-02    1.0203111719e+05
    1.4963239431e-02    1.0199141406e+05
    1.4986685477e-02    1.0195339844e+05
    1.5010161325e-02    1.0191402344e+05
    1.5033668838e-02    1.0187661719e+05
    1.5057205223e-02    1.0184167969e+05
    1.5080772340e-02    1.0180159375e+05
    1.5104367398e-02    1.0175940625e+05
    1.5127992257e-02    1.0171449219e+05
    1.5151646920e-02    1.0166903906e+05
    1.5175330453e-02    1.0163133594e+05
    1.5199041925e-02    1.0159383594e+05
    1.5222782269e-02    1.0156367969e+05
    1.5246548690e-02    1.0153550000e+05
    1.5270343982e-02    1.0151006250e+05
    1.5294168144e-02    1.0148608594e+05
    1.5318016522e-02    1.0146407031e+05
    1.5341891907e-02    1.0145285156e+05
    1.5365792438e-02    1.0144471875e+05
    1.5389721841e-02    1.0142500000e+05
    1.5413676389e-02    1.0140752344e+05
    1.5437657945e-02    1.0139046094e+05
    1.5461664647e-02    1.0137078125e+05
    1.5485695563e-02    1.0135422656e+05
    1.5509752557e-02    1.0133871094e+05
    1.5533835627e-02    1.0131372656e+05
    1.5557944775e-02    1.0129772656e+05
    1.5582079068e-02    1.0127921094e+05
    1.5606240369e-02    1.0125986719e+05
    1.5630424023e-02    1.0124224219e+05
    1.5654634684e-02    1.0121321094e+05
    1.5678871423e-02    1.0118814844e+05
    1.5703132376e-02    1.0115071094e+05
    1.5727419406e-02    1.0111246094e+05
    1.5751728788e-02    1.0107796875e+05
    1.5776060522e-02    1.0103943750e+05
    1.5800418332e-02    1.0099466406e+05
    1.5824800357e-02    1.0095216406e+05
    1.5849204734e-02    1.0091147656e+05
    1.5873633325e-02    1.0087996094e+05
    1.5898084268e-02    1.0084540625e+05
    1.5922557563e-02    1.0081802344e+05
    1.5947058797e-02    1.0078785156e+05
    1.5971582383e-02    1.0075565625e+05
    1.5996130183e-02    1.0073152344e+05
    1.6020702198e-02    1.0070310156e+05
    1.6045298427e-02    1.0066988281e+05
    1.6069920734e-02    1.0063678906e+05
    1.6094569117e-02    1.0059599219e+05
    1.6119243577e-02    1.0056111719e+05
    1.6143942252e-02    1.0052844531e+05
    1.6168667004e-02    1.0049614844e+05
    1.6193419695e-02    1.0047003906e+05
    1.6218200326e-02    1.0043991406e+05
    1.6243007034e-02    1.0040700781e+05
    1.6267839819e-02    1.0037935156e+05
    1.6292702407e-02    1.0035608594e+05
    1.6317596659e-02    1.0033142969e+05
    1.6342513263e-02    1.0031666406e+05
    1.6367461532e-02    1.0029389844e+05
    1.6392435879e-02    1.0027790625e+05
    1.6417443752e-02    1.0026541406e+05
    1.6442479566e-02    1.0025035156e+05
    1.6467543319e-02    1.0023131250e+05
    1.6492636874e-02    1.0021030469e+05
    1.6517756507e-02    1.0019425781e+05
    1.6542907804e-02    1.0017772656e+05
    1.6568088904e-02    1.0016513281e+05
    1.6593271866e-02    1.0014375000e+05
    1.6618426889e-02    1.0011884375e+05
    1.6643559560e-02    1.0009627344e+05
    1.6668669879e-02    1.0008057031e+05
    1.6693757847e-02    1.0006441406e+05
    1.6718825325e-02    1.0004985156e+05
    1.6743874177e-02    1.0003117969e+05
    1.6768900678e-02    1.0001183594e+05
    1.6793908551e-02    1.0000321875e+05
    1.6818899661e-02    9.9986593750e+04
    1.6843874007e-02    9.9981601562e+04
    1.6868829727e-02    9.9987648438e+04
    1.6893770546e-02    9.9991148438e+04
    1.6918692738e-02    9.9997835938e+04
    1.6943598166e-02    1.0000035156e+05
    1.6968490556e-02    1.0000305469e+05
    1.6993366182e-02    1.0000589844e+05
    1.7018226907e-02    1.0002014844e+05
    1.7043072730e-02    1.0003008594e+05
    1.7067901790e-02    1.0004146094e+05
    1.7092714086e-02    1.0005388281e+05
    1.7117511481e-02    1.0006010156e+05
    1.7142292112e-02    1.0006646875e+05
    1.7167057842e-02    1.0007022656e+05
    1.7191808671e-02    1.0006496094e+05
    1.7216544598e-02    1.0004796094e+05
    1.7241263762e-02    1.0003292969e+05
    1.7265968025e-02    1.0001991406e+05
    1.7290659249e-02    9.9997648438e+04
    1.7315333709e-02    9.9972875000e+04
    1.7339993268e-02    9.9951093750e+04
    1.7364639789e-02    9.9924585938e+04
    1.7389267683e-02    9.9905085938e+04
    1.7413880676e-02    9.9885031250e+04
    1.7438478768e-02    9.9869273438e+04
    1.7463061959e-02    9.9862101562e+04
    1.7487626523e-02    9.9855031250e+04
    1.7512176186e-02    9.9863289062e+04
    1.7536709085e-02    9.9874351562e+04
    1.7561223358e-02    9.9900148438e+04
    1.7585720867e-02    9.9928960938e+04
    1.7610201612e-02    9.9966500000e+04
    1.7634663731e-02    1.0001117969e+05
    1.7659107223e-02    1.0006835156e+05
    1.7683532089e-02    1.0013530469e+05
    1.7707940191e-02    1.0021272656e+05
    1.7732329667e-02    1.0029949219e+05
    1.7756698653e-02    1.0038889844e+05
    1.7781050876e-02    1.0048422656e+05
    1.7805384472e-02    1.0058997656e+05
    1.7829699442e-02    1.0070264844e+05
    1.7853999510e-02    1.0081815625e+05
    1.7878280953e-02    1.0092966406e+05
    1.7902545631e-02    1.0103694531e+05
    1.7926793545e-02    1.0114110156e+05
    1.7951028422e-02    1.0123971875e+05
    1.7975246534e-02    1.0132803906e+05
    1.7999447882e-02    1.0141277344e+05
    1.8023636192e-02    1.0148703906e+05
    1.8047811463e-02    1.0154880469e+05
    1.8071975559e-02    1.0160675781e+05
    1.8096126616e-02    1.0165952344e+05
    1.8120266497e-02    1.0170077344e+05
    1.8144397065e-02    1.0173383594e+05
    1.8168520182e-02    1.0176190625e+05
    1.8192630261e-02    1.0178583594e+05
    1.8216732889e-02    1.0180207031e+05
    1.8240824342e-02    1.0181696094e+05
    1.8264908344e-02    1.0183458594e+05
    1.8288983032e-02    1.0184850000e+05
    1.8313048407e-02    1.0185865625e+05
    1.8337102607e-02    1.0186785156e+05
    1.8361147493e-02    1.0187616406e+05
    1.8385183066e-02    1.0188212500e+05
    1.8409207463e-02    1.0188828906e+05
    1.8433224410e-02    1.0189114844e+05
    1.8457230181e-02    1.0189941406e+05
    1.8481226638e-02    1.0190290625e+05
    1.8505210057e-02    1.0191462500e+05
    1.8529184163e-02    1.0191949219e+05
    1.8553148955e-02    1.0193058594e+05
    1.8577100709e-02    1.0194217969e+05
    1.8601041287e-02    1.0196313281e+05
    1.8624972552e-02    1.0199396094e+05
    1.8648892641e-02    1.0202841406e+05
    1.8672801554e-02    1.0207266406e+05
    1.8696699291e-02    1.0212900000e+05
    1.8720587716e-02    1.0219128906e+05
    1.8744463101e-02    1.0227046875e+05
    1.8768329173e-02    1.0236503906e+05
    1.8792184070e-02    1.0246885156e+05
    1.8816027790e-02    1.0257608594e+05
    1.8839860335e-02    1.0269877344e+05
    1.8863683566e-02    1.0281866406e+05
    1.8887493759e-02    1.0294778906e+05
    1.8911294639e-02    1.0307153906e+05
    1.8935086206e-02    1.0318858594e+05
    1.8958866596e-02    1.0328978906e+05
    1.8982635811e-02    1.0336368750e+05
    1.9006397575e-02    1.0341464844e+05
    1.9030146301e-02    1.0343990625e+05
    1.9053885713e-02    1.0342652344e+05
    1.9077615812e-02    1.0338410156e+05
    1.9101334736e-02    1.0330862500e+05
    1.9125042483e-02    1.0319711719e+05
    1.9148740917e-02    1.0304618750e+05
    1.9172428176e-02    1.0285658594e+05
    1.9196104258e-02    1.0264222656e+05
    1.9219771028e-02    1.0240135156e+05
    1.9243424758e-02    1.0214691406e+05
    1.9267069176e-02    1.0188265625e+05
    1.9290700555e-02    1.0162069531e+05
    1.9314322621e-02    1.0136109375e+05
    1.9337931648e-02    1.0112725781e+05
    1.9361529499e-02    1.0091371875e+05
    1.9385114312e-02    1.0073683594e+05
    1.9408687949e-02    1.0059485156e+05
    1.9432250410e-02    1.0048541406e+05
    1.9455801696e-02    1.0040731250e+05
    1.9479339942e-02    1.0034808594e+05
    1.9502865151e-02    1.0031056250e+05
    1.9526379183e-02    1.0028896094e+05
    1.9549878314e-02    1.0028566406e+05
    1.9573366269e-02    1.0029197656e+05
    1.9596841186e-02    1.0031158594e+05
    1.9620303065e-02    1.0034085156e+05
    1.9643751904e-02    1.0037836719e+05
    1.9667187706e-02    1.0042127344e+05
    1.9690606743e-02    1.0046915625e+05
    1.9714014605e-02    1.0052849219e+05
    1.9737409428e-02    1.0059118750e+05
    1.9760791212e-02    1.0065990625e+05
    1.9784159958e-02    1.0072843750e+05
    1.9807513803e-02    1.0080014844e+05
    1.9830854610e-02    1.0088608594e+05
    1.9854182377e-02    1.0096571094e+05
    1.9877497107e-02    1.0105218750e+05
    1.9900798798e-02    1.0114250781e+05
    1.9924087450e-02    1.0122389844e+05
    1.9947361201e-02    1.0131468750e+05
    1.9970623776e-02    1.0140000781e+05
    1.9993871450e-02    1.0149465625e+05
    2.0017107949e-02    1.0158590625e+05
    2.0040329546e-02    1.0168247656e+05
    2.0063538104e-02    1.0177452344e+05
    2.0086731762e-02    1.0187318750e+05
    2.0109914243e-02    1.0196787500e+05
    2.0133081824e-02    1.0206605469e+05
    2.0156236365e-02    1.0216169531e+05
    2.0179376006e-02    1.0224910156e+05
    2.0202504471e-02    1.0232719531e+05
    2.0225618035e-02    1.0240583594e+05
    2.0248720422e-02    1.0247865625e+05
    2.0271807909e-02    1.0254771875e+05
    2.0294882357e-02    1.0261510156e+05
    2.0317947492e-02    1.0267353906e+05
    2.0340997726e-02    1.0272353125e+05
    2.0364036784e-02    1.0276600781e+05
    2.0387060940e-02    1.0280712500e+05
    2.0410073921e-02    1.0283990625e+05
    2.0433073863e-02    1.0286680469e+05
    2.0456060767e-02    1.0289410156e+05
    2.0479036495e-02    1.0290903906e+05
    2.0501999184e-02    1.0291102344e+05
    2.0524948835e-02    1.0291489844e+05
    2.0547885448e-02    1.0291034375e+05
    2.0570809022e-02    1.0289833594e+05
    2.0593719557e-02    1.0288858594e+05
    2.0616617054e-02    1.0287077344e+05
    2.0639499649e-02    1.0284597656e+05
    2.0662369207e-02    1.0282158594e+05
    2.0685223863e-02    1.0279446094e+05
    2.0708063617e-02    1.0276816406e+05
    2.0730890334e-02    1.0273896094e+05
    2.0753700286e-02    1.0271132031e+05
    2.0776495337e-02    1.0268246094e+05
    2.0799275488e-02    1.0265264844e+05
    2.0822042599e-02    1.0262797656e+05
    2.0844791085e-02    1.0259668750e+05
    2.0867524669e-02    1.0256708594e+05
    2.0890241489e-02    1.0253986719e+05
    2.0912945271e-02    1.0250696094e+05
    2.0935632288e-02    1.0248384375e+05
    2.0958306268e-02    1.0246034375e+05
    2.0980965346e-02    1.0243272656e+05
    2.1003607661e-02    1.0240681250e+05
    2.1026238799e-02    1.0238502344e+05
    2.1048855036e-02    1.0235500000e+05
    2.1071458235e-02    1.0233528125e+05
    2.1094048396e-02    1.0231408594e+05
    2.1116625518e-02    1.0229121875e+05
    2.1139191464e-02    1.0226664844e+05
    2.1161744371e-02    1.0223328125e+05
    2.1184286103e-02    1.0220953906e+05
    2.1206818521e-02    1.0217830469e+05
    2.1229337901e-02    1.0215387500e+05
    2.1251846105e-02    1.0212835156e+05
    2.1274344996e-02    1.0210671094e+05
    2.1296832711e-02    1.0208160156e+05
    2.1319312975e-02    1.0205735156e+05
    2.1341778338e-02    1.0203283594e+05
    2.1364232525e-02    1.0200718750e+05
    2.1386675537e-02    1.0198296094e+05
    2.1409107372e-02    1.0196982031e+05
    2.1431528032e-02    1.0195194531e+05
    2.1453931928e-02    1.0193534375e+05
    2.1476324648e-02    1.0191678125e+05
    2.1498700604e-02    1.0188646094e+05
    2.1521063522e-02    1.0186762500e+05
    2.1543409675e-02    1.0185533594e+05
    2.1565740928e-02    1.0184583594e+05
    2.1588053554e-02    1.0183130469e+05
    2.1610351279e-02    1.0180897656e+05
    2.1632634103e-02    1.0178519531e+05
    2.1654898301e-02    1.0175746094e+05
    2.1677147597e-02    1.0174027344e+05
    2.1699378267e-02    1.0172850781e+05
    2.1721594036e-02    1.0171997656e+05
    2.1743793041e-02    1.0170753906e+05
    2.1765975282e-02    1.0169099219e+05
    2.1788140759e-02    1.0167419531e+05
    2.1810289472e-02    1.0164802344e+05
    2.1832419559e-02    1.0163121875e+05
    2.1854531020e-02    1.0162796875e+05
    2.1876627579e-02    1.0162025781e+05
    2.1898705512e-02    1.0161735156e+05
    2.1920768544e-02    1.0161803906e+05
    2.1942811087e-02    1.0161872656e+05
    2.1964838728e-02    1.0161142969e+05
    2.1986849606e-02    1.0161810156e+05
    2.2008845583e-02    1.0162658594e+05
    2.2030822933e-02    1.0163916406e+05
    2.2052785382e-02    1.0165127344e+05
    2.2074732929e-02    1.0166377344e+05
    2.2096665576e-02    1.0167878906e+05
    2.2118583322e-02    1.0169846094e+05
    2.2140489891e-02    1.0170682031e+05
    2.2162377834e-02    1.0172327344e+05
    2.2184254602e-02    1.0173790625e+05
    2.2206118330e-02    1.0175603125e+05
    2.2227969021e-02    1.0176808594e+05
    2.2249806672e-02    1.0178510156e+05
    2.2271629423e-02    1.0179052344e+05
    2.2293440998e-02    1.0179065625e+05
    2.2315241396e-02    1.0178766406e+05
    2.2337028757e-02    1.0179064844e+05
    2.2358803079e-02    1.0178710156e+05
    2.2380566224e-02    1.0177783594e+05
    2.2402318195e-02    1.0176889844e+05
    2.2424057126e-02    1.0175380469e+05
    2.2445784882e-02    1.0173235156e+05
    2.2467501462e-02    1.0171103906e+05
    2.2489206865e-02    1.0168638281e+05
    2.2510899231e-02    1.0166396094e+05
    2.2532582283e-02    1.0163733594e+05
    2.2554252297e-02    1.0160903125e+05
    2.2575911134e-02    1.0158140625e+05
    2.2597560659e-02    1.0155269531e+05
    2.2619199008e-02    1.0153367969e+05
    2.2640828043e-02    1.0151911719e+05
    2.2662445903e-02    1.0150492969e+05
    2.2684050724e-02    1.0150069531e+05
    2.2705646232e-02    1.0149375000e+05
    2.2727232426e-02    1.0148691406e+05
    2.2748809308e-02    1.0149397656e+05
    2.2770375013e-02    1.0150272656e+05
    2.2791929543e-02    1.0150988281e+05
    2.2813472897e-02    1.0152225781e+05
    2.2835006937e-02    1.0153560156e+05
    2.2856531665e-02    1.0155558594e+05
    2.2878047079e-02    1.0157403906e+05
    2.2899549454e-02    1.0158963281e+05
    2.2921044379e-02    1.0160769531e+05
    2.2942528129e-02    1.0162467969e+05
    2.2964000702e-02    1.0163306250e+05
    2.2985465825e-02    1.0164309375e+05
    2.3006917909e-02    1.0165917969e+05
    2.3028360680e-02    1.0166175000e+05
    2.3049792275e-02    1.0166974219e+05
    2.3071214557e-02    1.0166922656e+05
    2.3092625663e-02    1.0167121094e+05
    2.3114029318e-02    1.0166331250e+05
    2.3135419935e-02    1.0166703906e+05
    2.3156799376e-02    1.0165975781e+05
    2.3178169504e-02    1.0164921094e+05
    2.3199530318e-02    1.0164934375e+05
    2.3220879957e-02    1.0163971875e+05
    2.3242218420e-02    1.0163799219e+05
    2.3263547570e-02    1.0163603906e+05
    2.3284865543e-02    1.0163262500e+05
    2.3306174204e-02    1.0162750000e+05
    2.3327469826e-02    1.0162403125e+05
    2.3348756135e-02    1.0162141406e+05
    2.3370031267e-02    1.0161633594e+05
    2.3391297087e-02    1.0161386719e+05
    2.3412553594e-02    1.0161253906e+05
    2.3433798924e-02    1.0161356250e+05
    2.3455033079e-02    1.0161096094e+05
    2.3476256058e-02    1.0160569531e+05
    2.3497469723e-02    1.0160141406e+05
    2.3518672213e-02    1.0160036719e+05
    2.3539865389e-02    1.0159494531e+05
    2.3561049253e-02    1.0159274219e+05
    2.3582221940e-02    1.0159044531e+05
    2.3603385314e-02    1.0158332031e+05
    2.3624535650e-02    1.0157912500e+05
    2.3645676672e-02    1.0156871094e+05
    2.3666808382e-02    1.0155800781e+05
    2.3687927052e-02    1.0155746094e+05
    2.3709038273e-02    1.0155688281e+05
    2.3730138317e-02    1.0154947656e+05
    2.3751227185e-02    1.0154296875e+05
    2.3772306740e-02    1.0153378906e+05
    2.3793375120e-02    1.0152171094e+05
    2.3814432323e-02    1.0151891406e+05
    2.3835480213e-02    1.0151883594e+05
    2.3856516927e-02    1.0152057031e+05
    2.3877544329e-02    1.0152061719e+05
    2.3898560554e-02    1.0152678906e+05
    2.3919565603e-02    1.0151957031e+05
    2.3940561339e-02    1.0151646094e+05
    2.3961545900e-02    1.0150971875e+05
    2.3982519284e-02    1.0150749219e+05
    2.4003483355e-02    1.0149974219e+05
    2.4024436250e-02    1.0149906250e+05
    2.4045377970e-02    1.0150311719e+05
    2.4066310376e-02    1.0149902344e+05
    2.4087233469e-02    1.0148860156e+05
    2.4108145386e-02    1.0148328125e+05
    2.4129044265e-02    1.0146702344e+05
    2.4149935693e-02    1.0145606250e+05
    2.4170814082e-02    1.0144939844e+05
    2.4191683158e-02    1.0144271094e+05
    2.4212542921e-02    1.0144282031e+05
    2.4233391508e-02    1.0143488281e+05
    2.4254228920e-02    1.0142203906e+05
    2.4275057018e-02    1.0141128125e+05
    2.4295873940e-02    1.0140627344e+05
    2.4316681549e-02    1.0139934375e+05
    2.4337477982e-02    1.0140421094e+05
    2.4358265102e-02    1.0140037500e+05
    2.4379042909e-02    1.0140399219e+05
    2.4399809539e-02    1.0140125000e+05
    2.4420566857e-02    1.0139881250e+05
    2.4441312999e-02    1.0139677344e+05
    2.4462047964e-02    1.0140564844e+05
    2.4482775480e-02    1.0140621094e+05
    2.4503491819e-02    1.0141466406e+05
    2.4524198845e-02    1.0142675000e+05
    2.4544894695e-02    1.0144252344e+05
    2.4565581232e-02    1.0145572656e+05
    2.4586258456e-02    1.0146519531e+05
    2.4606924504e-02    1.0147785156e+05
    2.4627581239e-02    1.0149608594e+05
    2.4648228660e-02    1.0150747656e+05
    2.4668866768e-02    1.0152669531e+05
    2.4689495564e-02    1.0154907031e+05
    2.4710113183e-02    1.0156099219e+05
    2.4730721489e-02    1.0157812500e+05
    2.4751318619e-02    1.0159136719e+05
    2.4771906435e-02    1.0161189844e+05
    2.4792486802e-02    1.0162465625e+05
    2.4813055992e-02    1.0163750000e+05
    2.4833614007e-02    1.0164905469e+05
    2.4854162708e-02    1.0165438281e+05
    2.4874702096e-02    1.0165913281e+05
    2.4895232171e-02    1.0165943750e+05
    2.4915752932e-02    1.0165864844e+05
    2.4936262518e-02    1.0165746094e+05
    2.4956764653e-02    1.0164430469e+05
    2.4977253750e-02    1.0163122656e+05
    2.4997735396e-02    1.0160817969e+05
    2.5018205866e-02    1.0158725000e+05
    2.5038668886e-02    1.0156047656e+05
    2.5059120730e-02    1.0153264844e+05
    2.5079563260e-02    1.0150140625e+05
    2.5099996477e-02    1.0146749219e+05
    2.5120420381e-02    1.0143355469e+05
    2.5140833110e-02    1.0139977344e+05
    2.5161236525e-02    1.0136434375e+05
    2.5181630626e-02    1.0133339844e+05
    2.5202017277e-02    1.0130858594e+05
    2.5222390890e-02    1.0128439844e+05
    2.5242757052e-02    1.0126991406e+05
    2.5263112038e-02    1.0126215625e+05
    2.5283459574e-02    1.0126297656e+05
    2.5303795934e-02    1.0126964844e+05
    2.5324124843e-02    1.0128342969e+05
    2.5344440714e-02    1.0130250000e+05
    2.5364749134e-02    1.0132483594e+05
    2.5385048240e-02    1.0135462500e+05
    2.5405339897e-02    1.0138422656e+05
    2.5425618514e-02    1.0141333594e+05
    2.5445887819e-02    1.0144186719e+05
    2.5466147810e-02    1.0147867969e+05
    2.5486400351e-02    1.0150890625e+05
    2.5506639853e-02    1.0154109375e+05
    2.5526873767e-02    1.0156783594e+05
    2.5547094643e-02    1.0159205469e+05
    2.5567308068e-02    1.0161697656e+05
    2.5587510318e-02    1.0163883594e+05
    2.5607703254e-02    1.0165867969e+05
    2.5627886876e-02    1.0168109375e+05
    2.5648061186e-02    1.0170200000e+05
    2.5668226182e-02    1.0171139844e+05
    2.5688380003e-02    1.0172607031e+05
    2.5708526373e-02    1.0174269531e+05
    2.5728661567e-02    1.0175806250e+05
    2.5748789310e-02    1.0177553906e+05
    2.5768904015e-02    1.0178486719e+05
    2.5789011270e-02    1.0180083594e+05
    2.5809109211e-02    1.0181702344e+05
    2.5829195976e-02    1.0183092969e+05
    2.5849273428e-02    1.0185071094e+05
    2.5869343430e-02    1.0187394531e+05
    2.5889402255e-02    1.0187971094e+05
    2.5909451768e-02    1.0189760156e+05
    2.5929493830e-02    1.0190822656e+05
    2.5949522853e-02    1.0191808594e+05
    2.5969544426e-02    1.0192252344e+05
    2.5989556685e-02    1.0192825000e+05
    2.6009559631e-02    1.0193559375e+05
    2.6029553264e-02    1.0193731250e+05
    2.6049537584e-02    1.0193793750e+05
    2.6069512591e-02    1.0193746094e+05
    2.6089478284e-02    1.0193352344e+05
    2.6109432802e-02    1.0193427344e+05
    2.6129379869e-02    1.0192818750e+05
    2.6149315760e-02    1.0192215625e+05
    2.6169244200e-02    1.0191614844e+05
    2.6189163327e-02    1.0190907031e+05
    2.6209073141e-02    1.0190092969e+05
    2.6228975505e-02    1.0189168750e+05
    2.6248866692e-02    1.0188500781e+05
    2.6268748567e-02    1.0187538281e+05
    2.6288621128e-02    1.0186894531e+05
    2.6308484375e-02    1.0186546094e+05
    2.6328338310e-02    1.0185822656e+05
    2.6348184794e-02    1.0185152344e+05
    2.6368021965e-02    1.0184091406e+05
    2.6387847960e-02    1.0183471875e+05
    2.6407664642e-02    1.0182933594e+05
    2.6427472010e-02    1.0182382031e+05
    2.6447271928e-02    1.0182053125e+05
    2.6467062533e-02    1.0181015625e+05
    2.6486843824e-02    1.0180285156e+05
    2.6506617665e-02    1.0179550781e+05
    2.6526380330e-02    1.0179290625e+05
    2.6546133682e-02    1.0179057031e+05
    2.6565877721e-02    1.0178361719e+05
    2.6585612446e-02    1.0177639844e+05
    2.6605339721e-02    1.0177363281e+05
    2.6625057682e-02    1.0176864844e+05
    2.6644766331e-02    1.0176141406e+05
    2.6664465666e-02    1.0176343750e+05
    2.6684155688e-02    1.0176075781e+05
    2.6703836396e-02    1.0174649219e+05
    2.6723509654e-02    1.0174127344e+05
    2.6743173599e-02    1.0174093750e+05
    2.6762828231e-02    1.0173606250e+05
    2.6782475412e-02    1.0173132031e+05
    2.6802113280e-02    1.0173128906e+05
    2.6821739972e-02    1.0172568750e+05
    2.6841359213e-02    1.0172235156e+05
    2.6860967278e-02    1.0171799219e+05
    2.6880569756e-02    1.0171375781e+05
    2.6900164783e-02    1.0171435156e+05
    2.6919748634e-02    1.0171436719e+05
    2.6939325035e-02    1.0171228906e+05
    2.6958892122e-02    1.0171734375e+05
    2.6978449896e-02    1.0171562500e+05
    2.6997998357e-02    1.0171294531e+05
    2.7017539367e-02    1.0171071094e+05
    2.7037071064e-02    1.0171950000e+05
    2.7056595311e-02    1.0171994531e+05
    2.7076110244e-02    1.0172794531e+05
    2.7095617726e-02    1.0173877344e+05
    2.7115115896e-02    1.0173935156e+05
    2.7134604752e-02    1.0173066406e+05
    2.7154086158e-02    1.0173235156e+05
    2.7173558250e-02    1.0174364844e+05
    2.7193021029e-02    1.0174893750e+05
    2.7212476358e-02    1.0176185156e+05
    2.7231922373e-02    1.0176971094e+05
    2.7251357213e-02    1.0177935156e+05
    2.7270786464e-02    1.0178228906e+05
    2.7290204540e-02    1.0179093750e+05
    2.7309613302e-02    1.0179752344e+05
    2.7329014614e-02    1.0180422656e+05
    2.7348404750e-02    1.0180514844e+05
    2.7367785573e-02    1.0180843750e+05
    2.7387158945e-02    1.0181400781e+05
    2.7406521142e-02    1.0182677344e+05
    2.7425874025e-02    1.0182702344e+05
    2.7445219457e-02    1.0183161719e+05
    2.7464553714e-02    1.0183167969e+05
    2.7483878657e-02    1.0184291406e+05
    2.7503194287e-02    1.0184047656e+05
    2.7522502467e-02    1.0184221094e+05
    2.7541799471e-02    1.0184113281e+05
    2.7561087161e-02    1.0184317969e+05
    2.7580365539e-02    1.0183911719e+05
    2.7599634603e-02    1.0184028906e+05
    2.7618894354e-02    1.0183291406e+05
    2.7638144791e-02    1.0183207031e+05
    2.7657385916e-02    1.0182825781e+05
    2.7676619589e-02    1.0182646094e+05
    2.7695843950e-02    1.0182213281e+05
    2.7715058997e-02    1.0182197656e+05
    2.7734262869e-02    1.0181669531e+05
    2.7753459290e-02    1.0181339844e+05
    2.7772648260e-02    1.0180981250e+05
    2.7791827917e-02    1.0180603906e+05
    2.7810998261e-02    1.0180316406e+05
    2.7830159292e-02    1.0179527344e+05
    2.7849311009e-02    1.0179544531e+05
    2.7868455276e-02    1.0179327344e+05
    2.7887590230e-02    1.0178403906e+05
    2.7906717733e-02    1.0178410156e+05
    2.7925835922e-02    1.0178789844e+05
    2.7944946662e-02    1.0178725000e+05
    2.7964048088e-02    1.0178344531e+05
    2.7983140200e-02    1.0179021094e+05
    2.8002224863e-02    1.0179527344e+05
    2.8021300212e-02    1.0179471094e+05
    2.8040368110e-02    1.0179534375e+05
    2.8059426695e-02    1.0179369531e+05
    2.8078475967e-02    1.0179327344e+05
    2.8097519651e-02    1.0179291406e+05
    2.8116554022e-02    1.0179512500e+05
    2.8135580942e-02    1.0179521094e+05
    2.8154598549e-02    1.0180000781e+05
    2.8173606843e-02    1.0180419531e+05
    2.8192607686e-02    1.0180389844e+05
    2.8211599216e-02    1.0181181250e+05
    2.8230583295e-02    1.0181321875e+05
    2.8249559924e-02    1.0181709375e+05
    2.8268527240e-02    1.0182346094e+05
    2.8287487105e-02    1.0182546875e+05
    2.8306435794e-02    1.0182997656e+05
    2.8325378895e-02    1.0183016406e+05
    2.8344312683e-02    1.0183646875e+05
    2.8363237157e-02    1.0184493750e+05
    2.8382156044e-02    1.0184797656e+05
    2.8401065618e-02    1.0185102344e+05
    2.8419965878e-02    1.0185399219e+05
    2.8438858688e-02    1.0185693750e+05
    2.8457742184e-02    1.0185983594e+05
    2.8476616368e-02    1.0186503906e+05
    2.8495483100e-02    1.0187052344e+05
    2.8514338657e-02    1.0187174219e+05
    2.8533160686e-02    1.0188014844e+05
    2.8551930562e-02    1.0189135156e+05
    2.8570635244e-02    1.0189108594e+05
    2.8589271009e-02    1.0189060156e+05
    2.8607837856e-02    1.0189447656e+05
    2.8626350686e-02    1.0190052344e+05
    2.8644818813e-02    1.0190187500e+05
    2.8663259000e-02    1.0190546094e+05
    2.8681686148e-02    1.0190889844e+05
    2.8700113297e-02    1.0191210156e+05
    2.8718546033e-02    1.0190809375e+05
    2.8736986220e-02    1.0190647656e+05
    2.8755431995e-02    1.0191178906e+05
    2.8773877770e-02    1.0191955469e+05
    2.8792314231e-02    1.0192381250e+05
    2.8810730204e-02    1.0192328906e+05
    2.8829116374e-02    1.0192485156e+05
    2.8847465292e-02    1.0192622656e+05
    2.8865773231e-02    1.0192394531e+05
    2.8884036466e-02    1.0192558594e+05
    2.8902258724e-02    1.0191522656e+05
    2.8920443729e-02    1.0191596094e+05
    2.8938598931e-02    1.0191680469e+05
    2.8956729919e-02    1.0191778906e+05
    2.8974846005e-02    1.0192017969e+05
    2.8992949054e-02    1.0193078125e+05
    2.9011042789e-02    1.0192639844e+05
    2.9029129073e-02    1.0192308594e+05
    2.9047204182e-02    1.0192378125e+05
    2.9065268114e-02    1.0191828125e+05
    2.9083315283e-02    1.0191518750e+05
    2.9101338238e-02    1.0191546094e+05
    2.9119335115e-02    1.0192407031e+05
    2.9137304053e-02    1.0192591406e+05
    2.9155241325e-02    1.0192439844e+05
    2.9173148796e-02    1.0191783594e+05
    2.9191024601e-02    1.0191913281e+05
    2.9208874330e-02    1.0192035156e+05
    2.9226697981e-02    1.0191912500e+05
    2.9244501144e-02    1.0191996875e+05
    2.9262285680e-02    1.0191735156e+05
    2.9280053452e-02    1.0191938281e+05
    2.9297806323e-02    1.0191925781e+05
    2.9315544292e-02    1.0191803906e+05
    2.9333265498e-02    1.0191710156e+05
    2.9350971803e-02    1.0192219531e+05
    2.9368655756e-02    1.0192492969e+05
    2.9386319220e-02    1.0192078906e+05
    2.9403960332e-02    1.0192127344e+05
    2.9421577230e-02    1.0192065625e+05
    2.9439168051e-02    1.0192347656e+05
    2.9456734657e-02    1.0192291406e+05
    2.9474277049e-02    1.0192361719e+05
    2.9491795227e-02    1.0193353125e+05
    2.9509292915e-02    1.0192983594e+05
    2.9526771978e-02    1.0193053125e+05
    2.9544232413e-02    1.0193135156e+05
    2.9561674222e-02    1.0193781250e+05
    2.9579099268e-02    1.0193760156e+05
    2.9596509412e-02    1.0193966406e+05
    2.9613900930e-02    1.0193946875e+05
    2.9631273821e-02    1.0194035156e+05
    2.9648626223e-02    1.0194133594e+05
    2.9665958136e-02    1.0194233594e+05
    2.9683271423e-02    1.0194460156e+05
    2.9700560495e-02    1.0194600781e+05
    2.9717829078e-02    1.0194639844e+05
    2.9735075310e-02    1.0195511719e+05
    2.9752301052e-02    1.0195806250e+05
    2.9769508168e-02    1.0195760156e+05
    2.9786696658e-02    1.0195614844e+05
    2.9803866521e-02    1.0196049219e+05
    2.9821017757e-02    1.0196955469e+05
    2.9838152230e-02    1.0196361719e+05
    2.9855269939e-02    1.0196425781e+05
    2.9872370884e-02    1.0196600000e+05
    2.9889453202e-02    1.0196771094e+05
    2.9906518757e-02    1.0196947656e+05
    2.9923565686e-02    1.0197246875e+05
    2.9940593988e-02    1.0197311719e+05
    2.9957601801e-02    1.0197472656e+05
    2.9974590987e-02    1.0197633594e+05
    2.9991561547e-02    1.0197783594e+05
    3.0008511618e-02    1.0197697656e+05
    3.0025444925e-02    1.0198065625e+05
    3.0042361468e-02    1.0198184375e+05
    3.0059259385e-02    1.0197837500e+05
    3.0076142401e-02    1.0197231250e+05
    3.0093006790e-02    1.0197313281e+05
    3.0109854415e-02    1.0198094531e+05
    3.0126683414e-02    1.0198408594e+05
    3.0143497512e-02    1.0197457031e+05
    3.0160292983e-02    1.0197864844e+05
    3.0177071691e-02    1.0198419531e+05
    3.0193833634e-02    1.0198635156e+05
    3.0210576952e-02    1.0198607031e+05
    3.0227303505e-02    1.0197991406e+05
    3.0244011432e-02    1.0198530469e+05
    3.0260702595e-02    1.0198819531e+05
    3.0277376994e-02    1.0198071094e+05
    3.0294034630e-02    1.0199056250e+05
    3.0310675502e-02    1.0199256250e+05
    3.0327299610e-02    1.0199339844e+05
    3.0343905091e-02    1.0199183594e+05
    3.0360495672e-02    1.0198774219e+05
    3.0377071351e-02    1.0199065625e+05
    3.0393628404e-02    1.0199375781e+05
    3.0410168692e-02    1.0199227344e+05
    3.0426690355e-02    1.0199753906e+05
    3.0443195254e-02    1.0199603906e+05
    3.0459685251e-02    1.0199678125e+05
    3.0476156622e-02    1.0199753125e+05
    3.0492611229e-02    1.0199602344e+05
    3.0509050936e-02    1.0199908594e+05
    3.0525473878e-02    1.0199999219e+05
    3.0541881919e-02    1.0200207031e+05
    3.0558273196e-02    1.0200183594e+05
    3.0574647710e-02    1.0200158594e+05
    3.0591005459e-02    1.0200359375e+05
    3.0607348308e-02    1.0200333594e+05
    3.0623674393e-02    1.0200538281e+05
    3.0639985576e-02    1.0200393750e+05
    3.0656279996e-02    1.0200707031e+05
    3.0672557652e-02    1.0200678906e+05
    3.0688818544e-02    1.0200391406e+05
    3.0705062672e-02    1.0199866406e+05
    3.0721291900e-02    1.0199992969e+05
    3.0737506226e-02    1.0199990625e+05
    3.0753703788e-02    1.0199978125e+05
    3.0769886449e-02    1.0199477344e+05
    3.0786054209e-02    1.0199434375e+05
    3.0802207068e-02    1.0199388281e+05
    3.0818343163e-02    1.0198889844e+05
    3.0834466219e-02    1.0199052344e+05
    3.0850572512e-02    1.0198502344e+05
    3.0866663903e-02    1.0197710156e+05
    3.0882738531e-02    1.0197789844e+05
    3.0898798257e-02    1.0197144531e+05
    3.0914843082e-02    1.0196922656e+05
    3.0930871144e-02    1.0196247656e+05
    3.0946886167e-02    1.0196003906e+05
    3.0962884426e-02    1.0195992969e+05
    3.0978867784e-02    1.0195647656e+05
    3.0994836241e-02    1.0195427344e+05
    3.1010789797e-02    1.0195327344e+05
    3.1026728451e-02    1.0194972656e+05
    3.1042650342e-02    1.0194118750e+05
    3.1058559194e-02    1.0193383594e+05
    3.1074455008e-02    1.0193197656e+05
    3.1090334058e-02    1.0193033594e+05
    3.1106200069e-02    1.0193137500e+05
    3.1122051179e-02    1.0193732031e+05
    3.1137887388e-02    1.0194040625e+05
    3.1153710559e-02    1.0194144531e+05
    3.1169516966e-02    1.0194541406e+05
    3.1185310334e-02    1.0194730469e+05
    3.1201090664e-02    1.0194853125e+05
    3.1216854230e-02    1.0195480469e+05
    3.1232602894e-02    1.0196121094e+05
    3.1248336658e-02    1.0196369531e+05
    3.1264055520e-02    1.0197003906e+05
    3.1279761344e-02    1.0197689844e+05
    3.1295452267e-02    1.0198778906e+05
    3.1311132014e-02    1.0199472656e+05
    3.1326796860e-02    1.0200297656e+05
    3.1342446804e-02    1.0200708594e+05
    3.1358085573e-02    1.0201133594e+05
    3.1373709440e-02    1.0201813281e+05
    3.1389318407e-02    1.0202258594e+05
    3.1404916197e-02    1.0203385156e+05
    3.1420499086e-02    1.0203611719e+05
    3.1436067075e-02    1.0204064844e+05
    3.1451620162e-02    1.0204521094e+05
    3.1467158347e-02    1.0204977344e+05
    3.1482685357e-02    1.0205668750e+05
    3.1498193741e-02    1.0206134375e+05
    3.1513694674e-02    1.0206374219e+05
    3.1529176980e-02    1.0206849219e+05
    3.1544648111e-02    1.0207321875e+05
    3.1560108066e-02    1.0207797656e+05
    3.1575553119e-02    1.0208280469e+05
    3.1590986997e-02    1.0208752344e+05
    3.1606405973e-02    1.0209077344e+05
    3.1621813774e-02    1.0208561719e+05
    3.1637206674e-02    1.0208936719e+05
    3.1652588397e-02    1.0209261719e+05
    3.1667951494e-02    1.0208743750e+05
    3.1683307141e-02    1.0208989844e+05
    3.1698647887e-02    1.0209092969e+05
    3.1713977456e-02    1.0208358594e+05
    3.1729292125e-02    1.0208403906e+05
    3.1744595617e-02    1.0208550000e+05
    3.1759884208e-02    1.0208688281e+05
    3.1775161624e-02    1.0208802344e+05
    3.1790427864e-02    1.0208208594e+05
    3.1805675477e-02    1.0208275781e+05
    3.1820915639e-02    1.0208316406e+05
    3.1836140901e-02    1.0207622656e+05
    3.1851354986e-02    1.0207382031e+05
    3.1866557896e-02    1.0207121875e+05
    3.1881745905e-02    1.0207072656e+05
    3.1896922737e-02    1.0207143750e+05
    3.1912088394e-02    1.0207222656e+05
    3.1927239150e-02    1.0207649219e+05
    3.1942378730e-02    1.0206953906e+05
    3.1957507133e-02    1.0207164844e+05
    3.1972620636e-02    1.0207021875e+05
    3.1987726688e-02    1.0207085156e+05
    3.2002814114e-02    1.0206778906e+05
    3.2017890364e-02    1.0206224219e+05
    3.2032959163e-02    1.0205889844e+05
    3.2048013061e-02    1.0205762500e+05
    3.2063052058e-02    1.0205617969e+05
    3.2078083605e-02    1.0205236719e+05
    3.2093103975e-02    1.0205189844e+05
    3.2108109444e-02    1.0205133594e+05
    3.2123107463e-02    1.0204044531e+05
    3.2138090581e-02    1.0204553906e+05
    3.2153062522e-02    1.0204625781e+05
    3.2168023288e-02    1.0204482031e+05
    3.2182972878e-02    1.0204585156e+05
    3.2197911292e-02    1.0204253906e+05
    3.2212834805e-02    1.0204633594e+05
    3.2227750868e-02    1.0205280469e+05
    3.2242652029e-02    1.0205135156e+05
    3.2257542014e-02    1.0205213281e+05
    3.2272424549e-02    1.0205172656e+05
    3.2287292182e-02    1.0205131250e+05
    3.2302148640e-02    1.0205080469e+05
    3.2316997647e-02    1.0205025000e+05
    3.2331831753e-02    1.0204517969e+05
    3.2346658409e-02    1.0204460156e+05
    3.2361470163e-02    1.0203828906e+05
    3.2376270741e-02    1.0203892969e+05
    3.2391063869e-02    1.0203850000e+05
    3.2405842096e-02    1.0204033594e+05
    3.2420612872e-02    1.0204691406e+05
    3.2435368747e-02    1.0204653906e+05
    3.2450113446e-02    1.0203932031e+05
    3.2464850694e-02    1.0204100781e+05
    3.2479573041e-02    1.0203439844e+05
    3.2494287938e-02    1.0203458594e+05
    3.2508991659e-02    1.0203127344e+05
    3.2523684204e-02    1.0203239844e+05
    3.2538365573e-02    1.0203003906e+05
    3.2553035766e-02    1.0202753906e+05
    3.2567698509e-02    1.0202378906e+05
    3.2582346350e-02    1.0202211719e+05
    3.2596986741e-02    1.0201585156e+05
    3.2611619681e-02    1.0201403125e+05
    3.2626237720e-02    1.0201452344e+05
    3.2640848309e-02    1.0201283594e+05
    3.2655447721e-02    1.0201352344e+05
    3.2670035958e-02    1.0200741406e+05
    3.2684613019e-02    1.0200350000e+05
    3.2699178904e-02    1.0200189844e+05
    3.2713737339e-02    1.0200022656e+05
    3.2728284597e-02    1.0199747656e+05
    3.2742820680e-02    1.0199932031e+05
    3.2757349312e-02    1.0199775781e+05
    3.2771866769e-02    1.0199839844e+05
    3.2786373049e-02    1.0199441406e+05
    3.2800871879e-02    1.0198924219e+05
    3.2815355808e-02    1.0199792969e+05
    3.2829832286e-02    1.0199641406e+05
    3.2844301313e-02    1.0199274219e+05
    3.2858755440e-02    1.0199253906e+05
    3.2873202115e-02    1.0199353906e+05
    3.2887637615e-02    1.0199349219e+05
    3.2902065665e-02    1.0199230469e+05
    3.2916482538e-02    1.0199121094e+05
    3.2930891961e-02    1.0199025000e+05
    3.2945290208e-02    1.0198721094e+05
    3.2959677279e-02    1.0199122656e+05
    3.2974056900e-02    1.0199583594e+05
    3.2988425344e-02    1.0199614844e+05
    3.3002786338e-02    1.0200364844e+05
    3.3017136157e-02    1.0200700781e+05
    3.3031478524e-02    1.0201047656e+05
    3.3045809716e-02    1.0201178906e+05
    3.3060129732e-02    1.0201421875e+05
    3.3074442297e-02    1.0201431250e+05
    3.3088747412e-02    1.0201661719e+05
    3.3103041351e-02    1.0201657031e+05
    3.3117324114e-02    1.0201760156e+05
    3.3131599426e-02    1.0201635156e+05
    3.3145863563e-02    1.0201974219e+05
    3.3160120249e-02    1.0202096875e+05
    3.3174365759e-02    1.0202230469e+05
    3.3188603818e-02    1.0202375000e+05
    3.3202830702e-02    1.0202300781e+05
    3.3217050135e-02    1.0203160156e+05
    3.3231258392e-02    1.0202856250e+05
    3.3245459199e-02    1.0202991406e+05
    3.3259648830e-02    1.0202875000e+05
    3.3273831010e-02    1.0202850781e+05
    3.3288005739e-02    1.0202577344e+05
    3.3302169293e-02    1.0202158594e+05
    3.3316325396e-02    1.0202202344e+05
    3.3330474049e-02    1.0202242969e+05
    3.3344611526e-02    1.0202065625e+05
    3.3358741552e-02    1.0202585156e+05
    3.3372864127e-02    1.0202885156e+05
    3.3386975527e-02    1.0202744531e+05
    3.3401079476e-02    1.0203063281e+05
    3.3415172249e-02    1.0203133594e+05
    3.3429257572e-02    1.0202717969e+05
    3.3443335444e-02    1.0202740625e+05
    3.3457405865e-02    1.0202733594e+05
    3.3471468836e-02    1.0202472656e+05
    3.3485524356e-02    1.0202196094e+05
    3.3499568701e-02    1.0201644531e+05
    3.3513605595e-02    1.0201328906e+05
    3.3527631313e-02    1.0201465625e+05
    3.3541653305e-02    1.0201375000e+05
    3.3555664122e-02    1.0201294531e+05
    3.3569667488e-02    1.0201219531e+05
    3.3583663404e-02    1.0201497656e+05
    3.3597648144e-02    1.0201564844e+05
    3.3611625433e-02    1.0201768750e+05
    3.3625595272e-02    1.0201756250e+05
    3.3639557660e-02    1.0201872656e+05
    3.3653512597e-02    1.0201285156e+05
    3.3667460084e-02    1.0201491406e+05
    3.3681396395e-02    1.0201474219e+05
    3.3695328981e-02    1.0201460156e+05
    3.3709254116e-02    1.0201339844e+05
    3.3723168075e-02    1.0201221875e+05
    3.3737078309e-02    1.0201678906e+05
    3.3750977367e-02    1.0202257031e+05
    3.3764872700e-02    1.0201217969e+05
    3.3778760582e-02    1.0201187500e+05
    3.3792637289e-02    1.0201144531e+05
    3.3806510270e-02    1.0201310156e+05
    3.3820372075e-02    1.0201239844e+05
    3.3834230155e-02    1.0200919531e+05
    3.3848077059e-02    1.0200005469e+05
    3.3861916512e-02    1.0199997656e+05
    3.3875752240e-02    1.0199878906e+05
    3.3889576793e-02    1.0200217969e+05
    3.3903393894e-02    1.0200110156e+05
    3.3917203546e-02    1.0199538281e+05
    3.3931009471e-02    1.0199053906e+05
    3.3944804221e-02    1.0198796094e+05
    3.3958595246e-02    1.0198865625e+05
    3.3972378820e-02    1.0198591406e+05
    3.3986151218e-02    1.0198533594e+05
    3.3999919891e-02    1.0197902344e+05
    3.4013681114e-02    1.0197706250e+05
    3.4027434886e-02    1.0197372656e+05
    3.4041177481e-02    1.0197043750e+05
    3.4054916352e-02    1.0197087500e+05
    3.4068647772e-02    1.0197121094e+05
    3.4082375467e-02    1.0196927344e+05
    3.4096091986e-02    1.0196615625e+05
    3.4109804779e-02    1.0196296094e+05
    3.4123510122e-02    1.0196316406e+05
    3.4137208015e-02    1.0195660156e+05
    3.4150898457e-02    1.0195456250e+05
    3.4164581448e-02    1.0195471094e+05
    3.4178260714e-02    1.0195021094e+05
    3.4191932529e-02    1.0195028125e+05
    3.4205596894e-02    1.0194575781e+05
    3.4219253808e-02    1.0194914844e+05
    3.4232903272e-02    1.0193883594e+05
    3.4246545285e-02    1.0193414844e+05
    3.4260183573e-02    1.0194224219e+05
    3.4273810685e-02    1.0193549219e+05
    3.4287434071e-02    1.0193471875e+05
    3.4301050007e-02    1.0193177344e+05
    3.4314658493e-02    1.0192888281e+05
    3.4328263253e-02    1.0192728125e+05
    3.4341860563e-02    1.0192793750e+05
    3.4355450422e-02    1.0193088281e+05
    3.4369036555e-02    1.0192928125e+05
    3.4382611513e-02    1.0191621094e+05
    3.4396182746e-02    1.0191672656e+05
    3.4409742802e-02    1.0192414844e+05
    3.4423299134e-02    1.0192127344e+05
    3.4436848015e-02    1.0192061719e+05
    3.4450393170e-02    1.0191760156e+05
    3.4463927150e-02    1.0190992969e+05
    3.4477461129e-02    1.0191024219e+05
    3.4490987659e-02    1.0190807031e+05
    3.4504506737e-02    1.0190593750e+05
    3.4518022090e-02    1.0189691406e+05
    3.4531529993e-02    1.0189939844e+05
    3.4545030445e-02    1.0190183594e+05
    3.4558523446e-02    1.0189522656e+05
    3.4572008997e-02    1.0189319531e+05
    3.4585487098e-02    1.0188682031e+05
    3.4598957747e-02    1.0189306250e+05
    3.4612424672e-02    1.0189247656e+05
    3.4625884145e-02    1.0188637500e+05
    3.4639336169e-02    1.0188139844e+05
    3.4652780741e-02    1.0188096875e+05
    3.4666225314e-02    1.0188411719e+05
    3.4679658711e-02    1.0188485156e+05
    3.4693088382e-02    1.0187535156e+05
    3.4706510603e-02    1.0187709375e+05
    3.4719929099e-02    1.0187569531e+05
    3.4733340144e-02    1.0187511719e+05
    3.4746743739e-02    1.0186977344e+05
    3.4760143608e-02    1.0186559375e+05
    3.4773536026e-02    1.0186360156e+05
    3.4786924720e-02    1.0186608594e+05
    3.4800305963e-02    1.0186403906e+05
    3.4813679755e-02    1.0185749219e+05
    3.4827046096e-02    1.0185522656e+05
    3.4840408713e-02    1.0185067969e+05
    3.4853763878e-02    1.0185071875e+05
    3.4867111593e-02    1.0184852344e+05
    3.4880455583e-02    1.0184635156e+05
    3.4893795848e-02    1.0184421875e+05
    3.4907124937e-02    1.0184218750e+05
    3.4920454025e-02    1.0184017969e+05
    3.4933775663e-02    1.0184042969e+05
    3.4947093576e-02    1.0183616406e+05
    3.4960404038e-02    1.0183413281e+05
    3.4973710775e-02    1.0183208594e+05
    3.4987010062e-02    1.0183231250e+05
endcurve
