Curveplot
LS-DYNA keyword deck by LS-PrePost                          
Time
Pressure
Defined Connection
Pressure @ 8 #pts=1745
* Minval=     9.8115976562e+04 at time=         0.0127200438
* Maxval=     1.7222395312e+05 at time=         0.0060591097
    0.0000000000e+00    9.9998085938e+04
    3.3812357287e-05    9.9998085938e+04
    6.1326652940e-05    9.9998289062e+04
    8.9102875791e-05    9.9998398438e+04
    1.1682785407e-04    9.9998523438e+04
    1.4461828687e-04    9.9998867188e+04
    1.7236733402e-04    9.9999476562e+04
    2.0016246708e-04    1.0000908594e+05
    2.2795486439e-04    1.0000050000e+05
    2.5574557367e-04    1.0000052344e+05
    2.8353667585e-04    1.0000022656e+05
    3.1133697485e-04    9.9990710938e+04
    3.3912662184e-04    9.9999664062e+04
    3.6691734567e-04    1.0000002344e+05
    3.9470891352e-04    1.0000032031e+05
    4.2249175021e-04    1.0000996875e+05
    4.5027161832e-04    1.0000132031e+05
    4.7804549104e-04    1.0000121875e+05
    5.0581363030e-04    9.9991835938e+04
    5.3357944125e-04    1.0000080469e+05
    5.6134146871e-04    1.0000091406e+05
    5.8909942163e-04    1.0000074219e+05
    6.1685312539e-04    1.0000033594e+05
    6.4460188150e-04    1.0000050781e+05
    6.7234638846e-04    1.0000108594e+05
    7.0008635521e-04    1.0000872656e+05
    7.2782178177e-04    9.9997773438e+04
    7.5555208605e-04    9.9992468750e+04
    7.8327720985e-04    1.0000102344e+05
    8.1099680392e-04    1.0000322656e+05
    8.3871174138e-04    1.0000341406e+05
    8.6642213864e-04    9.9998335938e+04
    8.9412782108e-04    9.9990414062e+04
    9.2182843946e-04    9.9994851562e+04
    9.4952445943e-04    1.0000481250e+05
    9.7721535712e-04    1.0000622656e+05
    1.0049008997e-03    1.0000152344e+05
    1.0325826006e-03    9.9992023438e+04
    1.0602590628e-03    1.0000135156e+05
    1.0879321489e-03    1.0001165625e+05
    1.1155996472e-03    1.0000513281e+05
    1.1432634201e-03    9.9999414062e+04
    1.1709230021e-03    9.9991101562e+04
    1.1985785095e-03    9.9990132812e+04
    1.2262313394e-03    1.0000003125e+05
    1.2538790470e-03    1.0001046875e+05
    1.2815232622e-03    1.0000668750e+05
    1.3091630535e-03    1.0000039844e+05
    1.3368004002e-03    9.9994773438e+04
    1.3644339051e-03    1.0000566406e+05
    1.3920635683e-03    1.0002716406e+05
    1.4196902048e-03    1.0006063281e+05
    1.4473132323e-03    1.0010283594e+05
    1.4749332331e-03    1.0018562500e+05
    1.5025498578e-03    1.0031833594e+05
    1.5301633393e-03    1.0051852344e+05
    1.5577742597e-03    1.0078193750e+05
    1.5853822697e-03    1.0109865625e+05
    1.6129877185e-03    1.0146775781e+05
    1.6405890929e-03    1.0186371094e+05
    1.6681876732e-03    1.0224946094e+05
    1.6957829939e-03    1.0259721094e+05
    1.7233766848e-03    1.0287243750e+05
    1.7509678146e-03    1.0305090625e+05
    1.7785291420e-03    1.0313735156e+05
    1.8060547300e-03    1.0313064844e+05
    1.8335470231e-03    1.0305325781e+05
    1.8610082334e-03    1.0292182031e+05
    1.8884401070e-03    1.0275196094e+05
    1.9158447394e-03    1.0257992969e+05
    1.9432241097e-03    1.0241585156e+05
    1.9705800805e-03    1.0229597656e+05
    1.9979148638e-03    1.0222080469e+05
    2.0252298564e-03    1.0219278906e+05
    2.0525271539e-03    1.0221947656e+05
    2.0798076876e-03    1.0227242969e+05
    2.1070730872e-03    1.0234436719e+05
    2.1343247499e-03    1.0242090625e+05
    2.1615643054e-03    1.0247835156e+05
    2.1887931507e-03    1.0252322656e+05
    2.2160108201e-03    1.0254185156e+05
    2.2432196420e-03    1.0253722656e+05
    2.2704207804e-03    1.0251646875e+05
    2.2976147011e-03    1.0248371094e+05
    2.3248014040e-03    1.0244380469e+05
    2.3519827519e-03    1.0241497656e+05
    2.3791582789e-03    1.0239583594e+05
    2.4063293822e-03    1.0239128125e+05
    2.4334960617e-03    1.0239435156e+05
    2.4606597144e-03    1.0241042969e+05
    2.4878205732e-03    1.0243414844e+05
    2.5149781723e-03    1.0246580469e+05
    2.5421329774e-03    1.0250768750e+05
    2.5692859199e-03    1.0255580469e+05
    2.5964374654e-03    1.0261977344e+05
    2.6235871483e-03    1.0270003906e+05
    2.6507352013e-03    1.0280178125e+05
    2.6778825559e-03    1.0292877344e+05
    2.7050296776e-03    1.0307050781e+05
    2.7321761008e-03    1.0322628906e+05
    2.7593218256e-03    1.0339372656e+05
    2.7864677832e-03    1.0356135156e+05
    2.8136142064e-03    1.0371977344e+05
    2.8407603968e-03    1.0385352344e+05
    2.8679079842e-03    1.0395278125e+05
    2.8950548731e-03    1.0401735156e+05
    2.9222022276e-03    1.0405146094e+05
    2.9493502807e-03    1.0406058594e+05
    2.9764990322e-03    1.0405547656e+05
    3.0036487151e-03    1.0402303906e+05
    3.0307997949e-03    1.0398431250e+05
    3.0579508748e-03    1.0394086719e+05
    3.0851035845e-03    1.0389596094e+05
    3.1122572254e-03    1.0384653906e+05
    3.1394117977e-03    1.0379708594e+05
    3.1665677670e-03    1.0373285156e+05
    3.1937246677e-03    1.0365018750e+05
    3.2208829653e-03    1.0356169531e+05
    3.2480424270e-03    1.0345466406e+05
    3.2752046827e-03    1.0333039844e+05
    3.2952371985e-03    1.0320641406e+05
    3.3145032357e-03    1.0310287500e+05
    3.3336398192e-03    1.0300587500e+05
    3.3528339118e-03    1.0291215625e+05
    3.3720366191e-03    1.0281515625e+05
    3.3912549261e-03    1.0273197656e+05
    3.4104890656e-03    1.0264708594e+05
    3.4297339153e-03    1.0256821094e+05
    3.4486323129e-03    1.0248925000e+05
    3.4671388566e-03    1.0241830469e+05
    3.4854323603e-03    1.0234384375e+05
    3.5036695190e-03    1.0227253125e+05
    3.5219141282e-03    1.0220189844e+05
    3.5401545465e-03    1.0213191406e+05
    3.5583588760e-03    1.0206234375e+05
    3.5765271168e-03    1.0199781250e+05
    3.5946895368e-03    1.0194300781e+05
    3.6139658187e-03    1.0189827344e+05
    3.6330535077e-03    1.0185933594e+05
    3.6521453876e-03    1.0183139844e+05
    3.6699753255e-03    1.0180802344e+05
    3.6875614896e-03    1.0179110156e+05
    3.7050142419e-03    1.0177347656e+05
    3.7224807311e-03    1.0174774219e+05
    3.7400643341e-03    1.0172683594e+05
    3.7577797193e-03    1.0169619531e+05
    3.7755726371e-03    1.0166958594e+05
    3.7933769636e-03    1.0164012500e+05
    3.8111612666e-03    1.0161553906e+05
    3.8289318327e-03    1.0158671094e+05
    3.8467168342e-03    1.0155842969e+05
    3.8645383902e-03    1.0152390625e+05
    3.8824023213e-03    1.0148732031e+05
    3.9002960548e-03    1.0144630469e+05
    3.9182156324e-03    1.0140286719e+05
    3.9361710660e-03    1.0136016406e+05
    3.9541716687e-03    1.0131571875e+05
    3.9733103476e-03    1.0127910156e+05
    3.9924201556e-03    1.0123860156e+05
    4.0104058571e-03    1.0120171875e+05
    4.0284004062e-03    1.0117837500e+05
    4.0464363992e-03    1.0114733594e+05
    4.0656095371e-03    1.0112185156e+05
    4.0847789496e-03    1.0109649219e+05
    4.1039343923e-03    1.0106900781e+05
    4.1219722480e-03    1.0104322656e+05
    4.1400394402e-03    1.0101514844e+05
    4.1591953486e-03    1.0098632031e+05
    4.1784178466e-03    1.0094725000e+05
    4.1976389475e-03    1.0091400000e+05
    4.2168586515e-03    1.0087557031e+05
    4.2360713705e-03    1.0083697656e+05
    4.2552771047e-03    1.0080732031e+05
    4.2744791135e-03    1.0077343750e+05
    4.2936825193e-03    1.0074914844e+05
    4.3128933758e-03    1.0072135156e+05
    4.3321144767e-03    1.0069939844e+05
    4.3513495475e-03    1.0068350000e+05
    4.3705995195e-03    1.0066450781e+05
    4.3898657896e-03    1.0065360156e+05
    4.4091497548e-03    1.0064600000e+05
    4.4284537435e-03    1.0063433594e+05
    4.4477786869e-03    1.0061731250e+05
    4.4671236537e-03    1.0059859375e+05
    4.4864914380e-03    1.0057508594e+05
    4.5058806427e-03    1.0054103906e+05
    4.5252908021e-03    1.0050125781e+05
    4.5447219163e-03    1.0045734375e+05
    4.5641721226e-03    1.0040724219e+05
    4.5836409554e-03    1.0034878906e+05
    4.6031279489e-03    1.0028228906e+05
    4.6226321720e-03    1.0021518750e+05
    4.6421540901e-03    1.0013961719e+05
    4.6616927721e-03    1.0006590625e+05
    4.6812482178e-03    9.9998554688e+04
    4.7008208930e-03    9.9939437500e+04
    4.7204112634e-03    9.9886023438e+04
    4.7400193289e-03    9.9846281250e+04
    4.7596455552e-03    9.9828289062e+04
    4.7792894766e-03    9.9821414062e+04
    4.7989510931e-03    9.9832992188e+04
    4.8186304048e-03    9.9858007812e+04
    4.8383255489e-03    9.9891656250e+04
    4.8580355942e-03    9.9932351562e+04
    4.8777610064e-03    9.9979648438e+04
    4.8975008540e-03    1.0002753906e+05
    4.9172551371e-03    1.0008819531e+05
    4.9370229244e-03    1.0014271094e+05
    4.9568060786e-03    1.0019871094e+05
    4.9766036682e-03    1.0024614844e+05
    4.9964170903e-03    1.0029477344e+05
    5.0162458792e-03    1.0033252344e+05
    5.0360900350e-03    1.0035874219e+05
    5.0559476949e-03    1.0038910156e+05
    5.0758207217e-03    1.0040746094e+05
    5.0957072526e-03    1.0042552344e+05
    5.1156077534e-03    1.0043689844e+05
    5.1355226897e-03    1.0044627344e+05
    5.1554525271e-03    1.0044946875e+05
    5.1753963344e-03    1.0046066406e+05
    5.1953555085e-03    1.0046447656e+05
    5.2153295837e-03    1.0047058594e+05
    5.2353194915e-03    1.0047421875e+05
    5.2553247660e-03    1.0047775781e+05
    5.2753463387e-03    1.0048392969e+05
    5.2953832783e-03    1.0049496875e+05
    5.3154369816e-03    1.0050665625e+05
    5.3355065174e-03    1.0051706250e+05
    5.3555918857e-03    1.0053257031e+05
    5.3756926209e-03    1.0054803906e+05
    5.3958082572e-03    1.0056093750e+05
    5.4159392603e-03    1.0057378906e+05
    5.4360851645e-03    1.0058664844e+05
    5.4562464356e-03    1.0059953125e+05
    5.4764230736e-03    1.0061442969e+05
    5.4966160096e-03    1.0062421875e+05
    5.5168238468e-03    1.0063596094e+05
    5.5370470509e-03    1.0064709375e+05
    5.5572865531e-03    1.0065781250e+05
    5.5775423534e-03    1.0066327344e+05
    5.5978130549e-03    1.0066785156e+05
    5.6181000546e-03    1.0067671094e+05
    5.6384028867e-03    1.0068521875e+05
    5.6587206200e-03    1.0068912500e+05
    5.6790532544e-03    1.0069512500e+05
    5.6994007900e-03    1.0070103906e+05
    5.7197632268e-03    1.0071199219e+05
    5.7401410304e-03    1.0072816406e+05
    5.7605337352e-03    1.0073885156e+05
    5.7809422724e-03    1.0077928125e+05
    5.8013652451e-03    1.0084124219e+05
    5.8218040504e-03    1.0097964844e+05
    5.8422577567e-03    1.0130968750e+05
    5.8627268299e-03    1.0205758594e+05
    5.8832112700e-03    1.0371861719e+05
    5.9037101455e-03    1.0710393750e+05
    5.9242248535e-03    1.1318407031e+05
    5.9447535314e-03    1.2249653906e+05
    5.9641525149e-03    1.3452326562e+05
    5.9830932878e-03    1.4669759375e+05
    6.0020405799e-03    1.5736703125e+05
    6.0210367665e-03    1.6538621875e+05
    6.0400799848e-03    1.7023631250e+05
    6.0591096990e-03    1.7222395312e+05
    6.0781282373e-03    1.7217839062e+05
    6.0972142965e-03    1.7103125000e+05
    6.1162756756e-03    1.6952042188e+05
    6.1353649944e-03    1.6806753125e+05
    6.1544459313e-03    1.6676646875e+05
    6.1734300107e-03    1.6548964062e+05
    6.1924448237e-03    1.6412539062e+05
    6.2115197070e-03    1.6260103125e+05
    6.2306127511e-03    1.6089423438e+05
    6.2497169711e-03    1.5907701562e+05
    6.2688281760e-03    1.5722335938e+05
    6.2879407778e-03    1.5539301562e+05
    6.3070552424e-03    1.5363485938e+05
    6.3261794858e-03    1.5196793750e+05
    6.3453060575e-03    1.5038096875e+05
    6.3644465990e-03    1.4886581250e+05
    6.3835908659e-03    1.4739445312e+05
    6.4027444459e-03    1.4596093750e+05
    6.4219115302e-03    1.4455200000e+05
    6.4410855994e-03    1.4318267188e+05
    6.4602680504e-03    1.4186548438e+05
    6.4794607460e-03    1.4062150000e+05
    6.4986641519e-03    1.3944600000e+05
    6.5178787336e-03    1.3834901562e+05
    6.5371058881e-03    1.3730439062e+05
    6.5563363023e-03    1.3630703125e+05
    6.5755699761e-03    1.3535654688e+05
    6.5948092379e-03    1.3443734375e+05
    6.6140629351e-03    1.3354203125e+05
    6.6333152354e-03    1.3266853125e+05
    6.6525745206e-03    1.3181704688e+05
    6.6718445159e-03    1.3097642969e+05
    6.6911154427e-03    1.3014631250e+05
    6.7104012705e-03    1.2932447656e+05
    6.7296870984e-03    1.2851339844e+05
    6.7489854991e-03    1.2771116406e+05
    6.7682852969e-03    1.2691216406e+05
    6.7875892855e-03    1.2611630469e+05
    6.8069072440e-03    1.2532321094e+05
    6.8262196146e-03    1.2453602344e+05
    6.8455408327e-03    1.2376089844e+05
    6.8648783490e-03    1.2299566406e+05
    6.8842126057e-03    1.2224658594e+05
    6.9035501219e-03    1.2150671094e+05
    6.9228983484e-03    1.2078210156e+05
    6.9422605447e-03    1.2007058594e+05
    6.9616222754e-03    1.1937010156e+05
    6.9809844717e-03    1.1868714844e+05
    7.0003494620e-03    1.1802260156e+05
    7.0197195746e-03    1.1737712500e+05
    7.0390999317e-03    1.1675185156e+05
    7.0584909990e-03    1.1614792969e+05
    7.0778946392e-03    1.1556650000e+05
    7.0973108523e-03    1.1500816406e+05
    7.1167377755e-03    1.1447908594e+05
    7.1361698210e-03    1.1398014844e+05
    7.1556069888e-03    1.1351492969e+05
    7.1750483476e-03    1.1307656250e+05
    7.1944966912e-03    1.1266230469e+05
    7.2139529511e-03    1.1226938281e+05
    7.2334166616e-03    1.1189864844e+05
    7.2528840974e-03    1.1155108594e+05
    7.2723543271e-03    1.1123016406e+05
    7.2918278165e-03    1.1093241406e+05
    7.3113050312e-03    1.1065692969e+05
    7.3307845742e-03    1.1040213281e+05
    7.3502692394e-03    1.1017227344e+05
    7.3697618209e-03    1.0995021094e+05
    7.3892641813e-03    1.0974755469e+05
    7.4087800458e-03    1.0956189844e+05
    7.4282912537e-03    1.0939077344e+05
    7.4477996677e-03    1.0923502344e+05
    7.4673094787e-03    1.0909856250e+05
    7.4868267402e-03    1.0897938281e+05
    7.5063589029e-03    1.0887465625e+05
    7.5258887373e-03    1.0879424219e+05
    7.5454111211e-03    1.0873346094e+05
    7.5649353676e-03    1.0868962500e+05
    7.5844703242e-03    1.0867031250e+05
    7.6040057465e-03    1.0866828906e+05
    7.6235276647e-03    1.0868968750e+05
    7.6430505142e-03    1.0872559375e+05
    7.6625877991e-03    1.0877050000e+05
    7.6821087860e-03    1.0882559375e+05
    7.7016241848e-03    1.0888503906e+05
    7.7211544849e-03    1.0895071094e+05
    7.7406810597e-03    1.0901878906e+05
    7.7602043748e-03    1.0908222656e+05
    7.7797495760e-03    1.0913771875e+05
    7.7992938459e-03    1.0918175000e+05
    7.8188432381e-03    1.0920824219e+05
    7.8384252265e-03    1.0922380469e+05
    7.8580006957e-03    1.0921477344e+05
    7.8775910661e-03    1.0919321875e+05
    7.8972103074e-03    1.0915363281e+05
    7.9168286175e-03    1.0910638281e+05
    7.9364804551e-03    1.0904350781e+05
    7.9561360180e-03    1.0898017969e+05
    7.9758102074e-03    1.0891610156e+05
    7.9955114052e-03    1.0885156250e+05
    8.0152126029e-03    1.0879405469e+05
    8.0349491909e-03    1.0874985156e+05
    8.0546662211e-03    1.0871552344e+05
    8.0743944272e-03    1.0869917969e+05
    8.0941170454e-03    1.0869458594e+05
    8.1138620153e-03    1.0870037500e+05
    8.1336386502e-03    1.0870555469e+05
    8.1534720957e-03    1.0871580469e+05
    8.1733558327e-03    1.0872828906e+05
    8.1932730973e-03    1.0873007031e+05
    8.2132071257e-03    1.0873615625e+05
    8.2330890000e-03    1.0872782031e+05
    8.2529615611e-03    1.0872100781e+05
    8.2727763802e-03    1.0870147656e+05
    8.2926023751e-03    1.0867664844e+05
    8.3124246448e-03    1.0864550781e+05
    8.3322748542e-03    1.0861153906e+05
    8.3521194756e-03    1.0857755469e+05
    8.3719678223e-03    1.0854085156e+05
    8.3917891607e-03    1.0850668750e+05
    8.4116021171e-03    1.0847186719e+05
    8.4314141423e-03    1.0844631250e+05
    8.4512168542e-03    1.0841819531e+05
    8.4710381925e-03    1.0839853906e+05
    8.4908353165e-03    1.0838131250e+05
    8.5106678307e-03    1.0837250781e+05
    8.5304882377e-03    1.0836312500e+05
    8.5503393784e-03    1.0835032031e+05
    8.5699046031e-03    1.0834546094e+05
    8.5892248899e-03    1.0833400000e+05
    8.6083402857e-03    1.0831927344e+05
    8.6272666231e-03    1.0829899219e+05
    8.6460309103e-03    1.0826659375e+05
    8.6646731943e-03    1.0823627344e+05
    8.6832325906e-03    1.0819483594e+05
    8.7017398328e-03    1.0815535156e+05
    8.7202098221e-03    1.0811614844e+05
    8.7386453524e-03    1.0807712500e+05
    8.7570473552e-03    1.0804075000e+05
    8.7753897533e-03    1.0800114844e+05
    8.7936492637e-03    1.0796650000e+05
    8.8118780404e-03    1.0793114844e+05
    8.8300397620e-03    1.0789877344e+05
    8.8481390849e-03    1.0787153906e+05
    8.8662039489e-03    1.0784767969e+05
    8.8842641562e-03    1.0782678906e+05
    8.9023411274e-03    1.0780650000e+05
    8.9204348624e-03    1.0778650000e+05
    8.9385388419e-03    1.0776588281e+05
    8.9566456154e-03    1.0774439844e+05
    8.9747514576e-03    1.0771696875e+05
    8.9928600937e-03    1.0768908594e+05
    9.0109808370e-03    1.0765782031e+05
    9.0291155502e-03    1.0762110156e+05
    9.0472688898e-03    1.0758036719e+05
    9.0654399246e-03    1.0753710156e+05
    9.0836230665e-03    1.0748669531e+05
    9.1018192470e-03    1.0743924219e+05
    9.1200266033e-03    1.0738968750e+05
    9.1382460669e-03    1.0733308594e+05
    9.1564757749e-03    1.0728088281e+05
    9.1747231781e-03    1.0722271094e+05
    9.1929892078e-03    1.0716971094e+05
    9.2112747952e-03    1.0711146094e+05
    9.2295790091e-03    1.0705865625e+05
    9.2479009181e-03    1.0699568750e+05
    9.2662386596e-03    1.0693249219e+05
    9.2845931649e-03    1.0687116406e+05
    9.3029672280e-03    1.0680716406e+05
    9.3213599175e-03    1.0674546094e+05
    9.3397712335e-03    1.0668536719e+05
    9.3582011759e-03    1.0662625000e+05
    9.3766497448e-03    1.0657050781e+05
    9.3951150775e-03    1.0651221875e+05
    9.4135999680e-03    1.0645313281e+05
    9.4321016222e-03    1.0639472656e+05
    9.4506228343e-03    1.0634038281e+05
    9.4691645354e-03    1.0627840625e+05
    9.4877239317e-03    1.0621975000e+05
    9.5063010231e-03    1.0614907031e+05
    9.5248948783e-03    1.0607950000e+05
    9.5435054973e-03    1.0601158594e+05
    9.5621328801e-03    1.0594271875e+05
    9.5807760954e-03    1.0587665625e+05
    9.5994332805e-03    1.0580975000e+05
    9.6181081608e-03    1.0574228906e+05
    9.6367979422e-03    1.0567507031e+05
    9.6555035561e-03    1.0561296875e+05
    9.6742231399e-03    1.0555755469e+05
    9.6929576248e-03    1.0549834375e+05
    9.7117051482e-03    1.0544112500e+05
    9.7304685041e-03    1.0538784375e+05
    9.7492448986e-03    1.0533577344e+05
    9.7680361941e-03    1.0529164844e+05
    9.7868405282e-03    1.0524983594e+05
    9.8056588322e-03    1.0521035156e+05
    9.8244920373e-03    1.0517292969e+05
    9.8433364183e-03    1.0513746875e+05
    9.8621929064e-03    1.0510806250e+05
    9.8810633644e-03    1.0507647656e+05
    9.8999459296e-03    1.0504591406e+05
    9.9188406020e-03    1.0501175781e+05
    9.9377483130e-03    1.0497477344e+05
    9.9566690624e-03    1.0493721094e+05
    9.9756028503e-03    1.0489091406e+05
    9.9945487455e-03    1.0484558594e+05
    1.0013507679e-02    1.0479367969e+05
    1.0032479651e-02    1.0474624219e+05
    1.0051463731e-02    1.0468710156e+05
    1.0070459917e-02    1.0462785156e+05
    1.0089469142e-02    1.0456144531e+05
    1.0108492337e-02    1.0448750000e+05
    1.0127528571e-02    1.0441258594e+05
    1.0146577843e-02    1.0433025781e+05
    1.0165639222e-02    1.0424810156e+05
    1.0184712708e-02    1.0415967969e+05
    1.0203798302e-02    1.0407058594e+05
    1.0222896002e-02    1.0398303906e+05
    1.0242006741e-02    1.0389710156e+05
    1.0261129588e-02    1.0381389844e+05
    1.0280264542e-02    1.0374735156e+05
    1.0299413465e-02    1.0369108594e+05
    1.0318575427e-02    1.0365040625e+05
    1.0337748565e-02    1.0362750000e+05
    1.0356934741e-02    1.0360894531e+05
    1.0376133956e-02    1.0360417969e+05
    1.0395346209e-02    1.0360247656e+05
    1.0414571501e-02    1.0360039844e+05
    1.0433809832e-02    1.0360025781e+05
    1.0453061201e-02    1.0359424219e+05
    1.0472324677e-02    1.0358147656e+05
    1.0491601191e-02    1.0356324219e+05
    1.0510892607e-02    1.0353616406e+05
    1.0530196130e-02    1.0350228906e+05
    1.0549513623e-02    1.0346728906e+05
    1.0568842292e-02    1.0343089844e+05
    1.0588183999e-02    1.0339886719e+05
    1.0607538745e-02    1.0336989844e+05
    1.0626907460e-02    1.0334184375e+05
    1.0646289214e-02    1.0331512500e+05
    1.0665684007e-02    1.0329439844e+05
    1.0685092770e-02    1.0327330469e+05
    1.0704516433e-02    1.0325796094e+05
    1.0723951273e-02    1.0323387500e+05
    1.0743400082e-02    1.0321931250e+05
    1.0762862861e-02    1.0319538281e+05
    1.0782338679e-02    1.0316342969e+05
    1.0801829398e-02    1.0313077344e+05
    1.0821334086e-02    1.0309571094e+05
    1.0840852745e-02    1.0306283594e+05
    1.0860386305e-02    1.0302996094e+05
    1.0879932903e-02    1.0300411719e+05
    1.0899493471e-02    1.0297906250e+05
    1.0919069871e-02    1.0296447656e+05
    1.0938662104e-02    1.0295169531e+05
    1.0958270170e-02    1.0294509375e+05
    1.0977892205e-02    1.0294616406e+05
    1.0997531936e-02    1.0294577344e+05
    1.1017187499e-02    1.0295183594e+05
    1.1036860757e-02    1.0295027344e+05
    1.1056551710e-02    1.0294582031e+05
    1.1076259427e-02    1.0294116406e+05
    1.1095987633e-02    1.0294239844e+05
    1.1115733534e-02    1.0293477344e+05
    1.1135498993e-02    1.0292688281e+05
    1.1155283079e-02    1.0291890625e+05
    1.1175086722e-02    1.0290527344e+05
    1.1194912717e-02    1.0288893750e+05
    1.1214758269e-02    1.0286852344e+05
    1.1234625243e-02    1.0284419531e+05
    1.1254511774e-02    1.0282107031e+05
    1.1274418794e-02    1.0279802344e+05
    1.1294347234e-02    1.0277685156e+05
    1.1314296164e-02    1.0275087500e+05
    1.1334266514e-02    1.0272933594e+05
    1.1354257353e-02    1.0270350000e+05
    1.1374268681e-02    1.0267471094e+05
    1.1394302361e-02    1.0263989844e+05
    1.1414355598e-02    1.0260542969e+05
    1.1434430256e-02    1.0256274219e+05
    1.1454525404e-02    1.0251822656e+05
    1.1474640109e-02    1.0247196094e+05
    1.1494777165e-02    1.0242409375e+05
    1.1514934711e-02    1.0239153125e+05
    1.1535113677e-02    1.0236938281e+05
    1.1555313133e-02    1.0238114844e+05
    1.1575534008e-02    1.0242019531e+05
    1.1595774442e-02    1.0251172656e+05
    1.1616035365e-02    1.0266749219e+05
    1.1636316776e-02    1.0290122656e+05
    1.1656619608e-02    1.0323513281e+05
    1.1676942930e-02    1.0368975781e+05
    1.1697287671e-02    1.0428578125e+05
    1.1717652902e-02    1.0503524219e+05
    1.1738038622e-02    1.0593292969e+05
    1.1758443899e-02    1.0696053125e+05
    1.1778870597e-02    1.0806885156e+05
    1.1799318716e-02    1.0919561719e+05
    1.1819788255e-02    1.1025241406e+05
    1.1840280145e-02    1.1115813281e+05
    1.1860790662e-02    1.1185118750e+05
    1.1881321669e-02    1.1227537500e+05
    1.1901874095e-02    1.1243714844e+05
    1.1922447011e-02    1.1233138281e+05
    1.1943042278e-02    1.1199277344e+05
    1.1963658035e-02    1.1147096875e+05
    1.1984295212e-02    1.1081453906e+05
    1.2004952878e-02    1.1008225000e+05
    1.2025631964e-02    1.0932902344e+05
    1.2046331540e-02    1.0859939844e+05
    1.2067052536e-02    1.0794011719e+05
    1.2087795883e-02    1.0736700781e+05
    1.2108558789e-02    1.0689572656e+05
    1.2129344046e-02    1.0650396094e+05
    1.2150149792e-02    1.0615962500e+05
    1.2170976959e-02    1.0582361719e+05
    1.2191825546e-02    1.0546941406e+05
    1.2212695554e-02    1.0507027344e+05
    1.2233586982e-02    1.0462591406e+05
    1.2254500762e-02    1.0413206250e+05
    1.2275436893e-02    1.0360483594e+05
    1.2296394445e-02    1.0305947656e+05
    1.2317374349e-02    1.0251082031e+05
    1.2338375673e-02    1.0198014844e+05
    1.2359398417e-02    1.0148153906e+05
    1.2380442582e-02    1.0102738281e+05
    1.2401508167e-02    1.0062605469e+05
    1.2422595173e-02    1.0027587500e+05
    1.2443703599e-02    9.9967351562e+04
    1.2464834377e-02    9.9699054688e+04
    1.2485986575e-02    9.9459335938e+04
    1.2507158332e-02    9.9241757812e+04
    1.2528351508e-02    9.9039304688e+04
    1.2549565174e-02    9.8856867188e+04
    1.2570801191e-02    9.8687554688e+04
    1.2592058629e-02    9.8543070312e+04
    1.2613337487e-02    9.8415101562e+04
    1.2634636834e-02    9.8307914062e+04
    1.2655957602e-02    9.8223226562e+04
    1.2677297927e-02    9.8163335938e+04
    1.2698660605e-02    9.8126492188e+04
    1.2720043771e-02    9.8115976562e+04
    1.2741449289e-02    9.8119976562e+04
    1.2762876227e-02    9.8140437500e+04
    1.2784325518e-02    9.8166882812e+04
    1.2805794366e-02    9.8189968750e+04
    1.2827285565e-02    9.8206398438e+04
    1.2848797254e-02    9.8207210938e+04
    1.2870330364e-02    9.8193882812e+04
    1.2891885825e-02    9.8171781250e+04
    1.2913462706e-02    9.8141101562e+04
    1.2935061008e-02    9.8122117188e+04
    1.2956679799e-02    9.8126976562e+04
    1.2978320010e-02    9.8168585938e+04
    1.2999981642e-02    9.8255937500e+04
    1.3021663763e-02    9.8394164062e+04
    1.3043368235e-02    9.8569007812e+04
    1.3065092266e-02    9.8788320312e+04
    1.3086837716e-02    9.9023601562e+04
    1.3108605519e-02    9.9271726562e+04
    1.3130392879e-02    9.9520156250e+04
    1.3152201660e-02    9.9754648438e+04
    1.3174032792e-02    9.9973273438e+04
    1.3195885345e-02    1.0016753906e+05
    1.3217759319e-02    1.0034381250e+05
    1.3239653781e-02    1.0050403906e+05
    1.3261569664e-02    1.0064811719e+05
    1.3283506967e-02    1.0078714844e+05
    1.3305463828e-02    1.0090946875e+05
    1.3327440247e-02    1.0102403906e+05
    1.3349435292e-02    1.0112453906e+05
    1.3371448033e-02    1.0121421094e+05
    1.3393475674e-02    1.0128397656e+05
    1.3415516354e-02    1.0134547656e+05
    1.3437564485e-02    1.0138791406e+05
    1.3459613547e-02    1.0142297656e+05
    1.3481658883e-02    1.0144736719e+05
    1.3503690250e-02    1.0146991406e+05
    1.3525702059e-02    1.0148616406e+05
    1.3547683135e-02    1.0150078906e+05
    1.3569628820e-02    1.0151978906e+05
    1.3591531664e-02    1.0153994531e+05
    1.3613392599e-02    1.0156556250e+05
    1.3635210693e-02    1.0159455469e+05
    1.3656994328e-02    1.0162666406e+05
    1.3678749092e-02    1.0165741406e+05
    1.3700488023e-02    1.0168653906e+05
    1.3722228818e-02    1.0171394531e+05
    1.3743981719e-02    1.0173850000e+05
    1.3765762560e-02    1.0175102344e+05
    1.3787578791e-02    1.0175340625e+05
    1.3809437864e-02    1.0175249219e+05
    1.3831341639e-02    1.0174518750e+05
    1.3853288256e-02    1.0174285156e+05
    1.3875273056e-02    1.0172760156e+05
    1.3897285797e-02    1.0170807031e+05
    1.3919321820e-02    1.0168456250e+05
    1.3941374607e-02    1.0165639844e+05
    1.3963440433e-02    1.0162455469e+05
    1.3985517435e-02    1.0159802344e+05
    1.4007603750e-02    1.0157006250e+05
    1.4029704034e-02    1.0153609375e+05
    1.4051820152e-02    1.0150138281e+05
    1.4073957689e-02    1.0146057031e+05
    1.4096121304e-02    1.0142010156e+05
    1.4118315652e-02    1.0137742969e+05
    1.4140545391e-02    1.0133083594e+05
    1.4162814245e-02    1.0128685156e+05
    1.4185124077e-02    1.0124108594e+05
    1.4207473956e-02    1.0119659375e+05
    1.4229862019e-02    1.0115496094e+05
    1.4252286404e-02    1.0111560156e+05
    1.4274741523e-02    1.0107591406e+05
    1.4297228307e-02    1.0104496094e+05
    1.4319745824e-02    1.0100486719e+05
    1.4342290349e-02    1.0097368750e+05
    1.4364863746e-02    1.0094181250e+05
    1.4387467876e-02    1.0090471094e+05
    1.4410103671e-02    1.0086838281e+05
    1.4432771131e-02    1.0083546094e+05
    1.4455472119e-02    1.0080021094e+05
    1.4478209428e-02    1.0076035156e+05
    1.4500979334e-02    1.0072719531e+05
    1.4523783699e-02    1.0069453906e+05
    1.4546621591e-02    1.0066910156e+05
    1.4569494873e-02    1.0063806250e+05
    1.4592399821e-02    1.0061016406e+05
    1.4615339227e-02    1.0058021094e+05
    1.4638305642e-02    1.0056130469e+05
    1.4661304653e-02    1.0054515625e+05
    1.4684336260e-02    1.0053278906e+05
    1.4707398601e-02    1.0052822656e+05
    1.4730494469e-02    1.0052740625e+05
    1.4753622934e-02    1.0053542969e+05
    1.4776783995e-02    1.0054515625e+05
    1.4799979515e-02    1.0055827344e+05
    1.4823205769e-02    1.0057667969e+05
    1.4846466482e-02    1.0060185156e+05
    1.4869757928e-02    1.0062849219e+05
    1.4893081971e-02    1.0065872656e+05
    1.4916437678e-02    1.0068525781e+05
    1.4939822257e-02    1.0071200781e+05
    1.4963239431e-02    1.0073850000e+05
    1.4986685477e-02    1.0075930469e+05
    1.5010161325e-02    1.0077619531e+05
    1.5033668838e-02    1.0078783594e+05
    1.5057205223e-02    1.0079818750e+05
    1.5080772340e-02    1.0080171875e+05
    1.5104367398e-02    1.0080980469e+05
    1.5127992257e-02    1.0081385156e+05
    1.5151646920e-02    1.0082358594e+05
    1.5175330453e-02    1.0083555469e+05
    1.5199041925e-02    1.0084797656e+05
    1.5222782269e-02    1.0086367969e+05
    1.5246548690e-02    1.0088372656e+05
    1.5270343982e-02    1.0090550781e+05
    1.5294168144e-02    1.0092353125e+05
    1.5318016522e-02    1.0094185156e+05
    1.5341891907e-02    1.0096024219e+05
    1.5365792438e-02    1.0097487500e+05
    1.5389721841e-02    1.0098271094e+05
    1.5413676389e-02    1.0099400000e+05
    1.5437657945e-02    1.0100562500e+05
    1.5461664647e-02    1.0100886719e+05
    1.5485695563e-02    1.0101786719e+05
    1.5509752557e-02    1.0102846875e+05
    1.5533835627e-02    1.0103913281e+05
    1.5557944775e-02    1.0105310156e+05
    1.5582079068e-02    1.0107163281e+05
    1.5606240369e-02    1.0109414844e+05
    1.5630424023e-02    1.0112364844e+05
    1.5654634684e-02    1.0115022656e+05
    1.5678871423e-02    1.0118303906e+05
    1.5703132376e-02    1.0120766406e+05
    1.5727419406e-02    1.0122824219e+05
    1.5751728788e-02    1.0125628125e+05
    1.5776060522e-02    1.0129427344e+05
    1.5800418332e-02    1.0131494531e+05
    1.5824800357e-02    1.0133555469e+05
    1.5849204734e-02    1.0135539844e+05
    1.5873633325e-02    1.0137485156e+05
    1.5898084268e-02    1.0139369531e+05
    1.5922557563e-02    1.0140835156e+05
    1.5947058797e-02    1.0142208594e+05
    1.5971582383e-02    1.0143367969e+05
    1.5996130183e-02    1.0144410156e+05
    1.6020702198e-02    1.0145046094e+05
    1.6045298427e-02    1.0146028906e+05
    1.6069920734e-02    1.0146064844e+05
    1.6094569117e-02    1.0145978125e+05
    1.6119243577e-02    1.0146699219e+05
    1.6143942252e-02    1.0146513281e+05
    1.6168667004e-02    1.0146214844e+05
    1.6193419695e-02    1.0146114844e+05
    1.6218200326e-02    1.0145908594e+05
    1.6243007034e-02    1.0146389844e+05
    1.6267839819e-02    1.0146272656e+05
    1.6292702407e-02    1.0146822656e+05
    1.6317596659e-02    1.0147158594e+05
    1.6342513263e-02    1.0147875781e+05
    1.6367461532e-02    1.0149197656e+05
    1.6392435879e-02    1.0150660156e+05
    1.6417443752e-02    1.0152665625e+05
    1.6442479566e-02    1.0154771875e+05
    1.6467543319e-02    1.0156780469e+05
    1.6492636874e-02    1.0158902344e+05
    1.6517756507e-02    1.0161078906e+05
    1.6542907804e-02    1.0163338281e+05
    1.6568088904e-02    1.0165264844e+05
    1.6593271866e-02    1.0167128125e+05
    1.6618426889e-02    1.0168561719e+05
    1.6643559560e-02    1.0170094531e+05
    1.6668669879e-02    1.0171688281e+05
    1.6693757847e-02    1.0173116406e+05
    1.6718825325e-02    1.0174109375e+05
    1.6743874177e-02    1.0175886719e+05
    1.6768900678e-02    1.0176750781e+05
    1.6793908551e-02    1.0178286719e+05
    1.6818899661e-02    1.0179239844e+05
    1.6843874007e-02    1.0179840625e+05
    1.6868829727e-02    1.0180483594e+05
    1.6893770546e-02    1.0180347656e+05
    1.6918692738e-02    1.0180055469e+05
    1.6943598166e-02    1.0179272656e+05
    1.6968490556e-02    1.0178508594e+05
    1.6993366182e-02    1.0177758594e+05
    1.7018226907e-02    1.0176793750e+05
    1.7043072730e-02    1.0175658594e+05
    1.7067901790e-02    1.0174396875e+05
    1.7092714086e-02    1.0173800781e+05
    1.7117511481e-02    1.0172903906e+05
    1.7142292112e-02    1.0172463281e+05
    1.7167057842e-02    1.0172603125e+05
    1.7191808671e-02    1.0172580469e+05
    1.7216544598e-02    1.0172397656e+05
    1.7241263762e-02    1.0173155469e+05
    1.7265968025e-02    1.0173028906e+05
    1.7290659249e-02    1.0172887500e+05
    1.7315333709e-02    1.0173696094e+05
    1.7339993268e-02    1.0174396094e+05
    1.7364639789e-02    1.0174752344e+05
    1.7389267683e-02    1.0175812500e+05
    1.7413880676e-02    1.0176884375e+05
    1.7438478768e-02    1.0178769531e+05
    1.7463061959e-02    1.0181033594e+05
    1.7487626523e-02    1.0183674219e+05
    1.7512176186e-02    1.0187996094e+05
    1.7536709085e-02    1.0193221094e+05
    1.7561223358e-02    1.0198653906e+05
    1.7585720867e-02    1.0207257031e+05
    1.7610201612e-02    1.0217015625e+05
    1.7634663731e-02    1.0227544531e+05
    1.7659107223e-02    1.0240341406e+05
    1.7683532089e-02    1.0253271094e+05
    1.7707940191e-02    1.0266025000e+05
    1.7732329667e-02    1.0278789844e+05
    1.7756698653e-02    1.0291178906e+05
    1.7781050876e-02    1.0301219531e+05
    1.7805384472e-02    1.0308485156e+05
    1.7829699442e-02    1.0311971094e+05
    1.7853999510e-02    1.0312121094e+05
    1.7878280953e-02    1.0308958594e+05
    1.7902545631e-02    1.0301002344e+05
    1.7926793545e-02    1.0288653906e+05
    1.7951028422e-02    1.0272589844e+05
    1.7975246534e-02    1.0252622656e+05
    1.7999447882e-02    1.0228655469e+05
    1.8023636192e-02    1.0203488281e+05
    1.8047811463e-02    1.0176362500e+05
    1.8071975559e-02    1.0149306250e+05
    1.8096126616e-02    1.0123953125e+05
    1.8120266497e-02    1.0101725781e+05
    1.8144397065e-02    1.0082437500e+05
    1.8168520182e-02    1.0066471094e+05
    1.8192630261e-02    1.0054250781e+05
    1.8216732889e-02    1.0043961719e+05
    1.8240824342e-02    1.0036561719e+05
    1.8264908344e-02    1.0031672656e+05
    1.8288983032e-02    1.0029333594e+05
    1.8313048407e-02    1.0029496094e+05
    1.8337102607e-02    1.0032727344e+05
    1.8361147493e-02    1.0038006250e+05
    1.8385183066e-02    1.0044553125e+05
    1.8409207463e-02    1.0052527344e+05
    1.8433224410e-02    1.0061660156e+05
    1.8457230181e-02    1.0071097656e+05
    1.8481226638e-02    1.0080456250e+05
    1.8505210057e-02    1.0091189844e+05
    1.8529184163e-02    1.0101471094e+05
    1.8553148955e-02    1.0112659375e+05
    1.8577100709e-02    1.0123341406e+05
    1.8601041287e-02    1.0133681250e+05
    1.8624972552e-02    1.0143662500e+05
    1.8648892641e-02    1.0152535156e+05
    1.8672801554e-02    1.0162722656e+05
    1.8696699291e-02    1.0171466406e+05
    1.8720587716e-02    1.0180610156e+05
    1.8744463101e-02    1.0190544531e+05
    1.8768329173e-02    1.0199864844e+05
    1.8792184070e-02    1.0209916406e+05
    1.8816027790e-02    1.0219786719e+05
    1.8839860335e-02    1.0229289844e+05
    1.8863683566e-02    1.0238536719e+05
    1.8887493759e-02    1.0247322656e+05
    1.8911294639e-02    1.0255910156e+05
    1.8935086206e-02    1.0262528906e+05
    1.8958866596e-02    1.0268708594e+05
    1.8982635811e-02    1.0273047656e+05
    1.9006397575e-02    1.0276908594e+05
    1.9030146301e-02    1.0278696875e+05
    1.9053885713e-02    1.0280364844e+05
    1.9077615812e-02    1.0280828906e+05
    1.9101334736e-02    1.0281322656e+05
    1.9125042483e-02    1.0281252344e+05
    1.9148740917e-02    1.0281290625e+05
    1.9172428176e-02    1.0281372656e+05
    1.9196104258e-02    1.0281646094e+05
    1.9219771028e-02    1.0281594531e+05
    1.9243424758e-02    1.0281136719e+05
    1.9267069176e-02    1.0279407031e+05
    1.9290700555e-02    1.0278905469e+05
    1.9314322621e-02    1.0277575000e+05
    1.9337931648e-02    1.0275707031e+05
    1.9361529499e-02    1.0273503906e+05
    1.9385114312e-02    1.0270980469e+05
    1.9408687949e-02    1.0268086719e+05
    1.9432250410e-02    1.0264859375e+05
    1.9455801696e-02    1.0261291406e+05
    1.9479339942e-02    1.0257393750e+05
    1.9502865151e-02    1.0253156250e+05
    1.9526379183e-02    1.0248596094e+05
    1.9549878314e-02    1.0244675000e+05
    1.9573366269e-02    1.0241247656e+05
    1.9596841186e-02    1.0237703906e+05
    1.9620303065e-02    1.0234364844e+05
    1.9643751904e-02    1.0231517969e+05
    1.9667187706e-02    1.0228572656e+05
    1.9690606743e-02    1.0225697656e+05
    1.9714014605e-02    1.0223785156e+05
    1.9737409428e-02    1.0222646094e+05
    1.9760791212e-02    1.0221655469e+05
    1.9784159958e-02    1.0220606250e+05
    1.9807513803e-02    1.0219308594e+05
    1.9830854610e-02    1.0217986719e+05
    1.9854182377e-02    1.0217222656e+05
    1.9877497107e-02    1.0216090625e+05
    1.9900798798e-02    1.0215447656e+05
    1.9924087450e-02    1.0214914844e+05
    1.9947361201e-02    1.0214461719e+05
    1.9970623776e-02    1.0213332031e+05
    1.9993871450e-02    1.0211789844e+05
    2.0017107949e-02    1.0210142969e+05
    2.0040329546e-02    1.0209052344e+05
    2.0063538104e-02    1.0208152344e+05
    2.0086731762e-02    1.0207453125e+05
    2.0109914243e-02    1.0207208594e+05
    2.0133081824e-02    1.0206314844e+05
    2.0156236365e-02    1.0205033594e+05
    2.0179376006e-02    1.0203978125e+05
    2.0202504471e-02    1.0203178125e+05
    2.0225618035e-02    1.0202914844e+05
    2.0248720422e-02    1.0202377344e+05
    2.0271807909e-02    1.0201991406e+05
    2.0294882357e-02    1.0201044531e+05
    2.0317947492e-02    1.0200344531e+05
    2.0340997726e-02    1.0199699219e+05
    2.0364036784e-02    1.0199191406e+05
    2.0387060940e-02    1.0198714844e+05
    2.0410073921e-02    1.0197981250e+05
    2.0433073863e-02    1.0197708594e+05
    2.0456060767e-02    1.0197439844e+05
    2.0479036495e-02    1.0196732031e+05
    2.0501999184e-02    1.0196465625e+05
    2.0524948835e-02    1.0196382031e+05
    2.0547885448e-02    1.0195839844e+05
    2.0570809022e-02    1.0196264844e+05
    2.0593719557e-02    1.0195831250e+05
    2.0616617054e-02    1.0195433594e+05
    2.0639499649e-02    1.0196009375e+05
    2.0662369207e-02    1.0195710156e+05
    2.0685223863e-02    1.0196403906e+05
    2.0708063617e-02    1.0196250000e+05
    2.0730890334e-02    1.0196146875e+05
    2.0753700286e-02    1.0196977344e+05
    2.0776495337e-02    1.0196890625e+05
    2.0799275488e-02    1.0196836719e+05
    2.0822042599e-02    1.0197785156e+05
    2.0844791085e-02    1.0197791406e+05
    2.0867524669e-02    1.0197778125e+05
    2.0890241489e-02    1.0197781250e+05
    2.0912945271e-02    1.0198092969e+05
    2.0935632288e-02    1.0198847656e+05
    2.0958306268e-02    1.0198981250e+05
    2.0980965346e-02    1.0199141406e+05
    2.1003607661e-02    1.0199346875e+05
    2.1026238799e-02    1.0199578906e+05
    2.1048855036e-02    1.0199840625e+05
    2.1071458235e-02    1.0200131250e+05
    2.1094048396e-02    1.0200950000e+05
    2.1116625518e-02    1.0201647656e+05
    2.1139191464e-02    1.0201912500e+05
    2.1161744371e-02    1.0202208594e+05
    2.1184286103e-02    1.0202474219e+05
    2.1206818521e-02    1.0203297656e+05
    2.1229337901e-02    1.0204108594e+05
    2.1251846105e-02    1.0204368750e+05
    2.1274344996e-02    1.0204564844e+05
    2.1296832711e-02    1.0205485156e+05
    2.1319312975e-02    1.0206016406e+05
    2.1341778338e-02    1.0207097656e+05
    2.1364232525e-02    1.0207691406e+05
    2.1386675537e-02    1.0207796094e+05
    2.1409107372e-02    1.0208406250e+05
    2.1431528032e-02    1.0209022656e+05
    2.1453931928e-02    1.0210144531e+05
    2.1476324648e-02    1.0210775000e+05
    2.1498700604e-02    1.0210855469e+05
    2.1521063522e-02    1.0211406250e+05
    2.1543409675e-02    1.0212425000e+05
    2.1565740928e-02    1.0212915625e+05
    2.1588053554e-02    1.0212858594e+05
    2.1610351279e-02    1.0213319531e+05
    2.1632634103e-02    1.0213765625e+05
    2.1654898301e-02    1.0215125000e+05
    2.1677147597e-02    1.0215039844e+05
    2.1699378267e-02    1.0215000000e+05
    2.1721594036e-02    1.0215339844e+05
    2.1743793041e-02    1.0215618750e+05
    2.1765975282e-02    1.0215803125e+05
    2.1788140759e-02    1.0215346875e+05
    2.1810289472e-02    1.0214910156e+05
    2.1832419559e-02    1.0214462500e+05
    2.1854531020e-02    1.0213641406e+05
    2.1876627579e-02    1.0212384375e+05
    2.1898705512e-02    1.0210750000e+05
    2.1920768544e-02    1.0209835156e+05
    2.1942811087e-02    1.0207396094e+05
    2.1964838728e-02    1.0205825781e+05
    2.1986849606e-02    1.0203610156e+05
    2.2008845583e-02    1.0201272656e+05
    2.2030822933e-02    1.0198840625e+05
    2.2052785382e-02    1.0196836719e+05
    2.2074732929e-02    1.0194696094e+05
    2.2096665576e-02    1.0192641406e+05
    2.2118583322e-02    1.0190540625e+05
    2.2140489891e-02    1.0188640625e+05
    2.2162377834e-02    1.0187317969e+05
    2.2184254602e-02    1.0186671094e+05
    2.2206118330e-02    1.0185694531e+05
    2.2227969021e-02    1.0185833594e+05
    2.2249806672e-02    1.0185308594e+05
    2.2271629423e-02    1.0186032031e+05
    2.2293440998e-02    1.0187422656e+05
    2.2315241396e-02    1.0189033594e+05
    2.2337028757e-02    1.0191297656e+05
    2.2358803079e-02    1.0194272656e+05
    2.2380566224e-02    1.0196609375e+05
    2.2402318195e-02    1.0199593750e+05
    2.2424057126e-02    1.0203081250e+05
    2.2445784882e-02    1.0206227344e+05
    2.2467501462e-02    1.0209337500e+05
    2.2489206865e-02    1.0212547656e+05
    2.2510899231e-02    1.0215810156e+05
    2.2532582283e-02    1.0219533594e+05
    2.2554252297e-02    1.0221906250e+05
    2.2575911134e-02    1.0224684375e+05
    2.2597560659e-02    1.0227280469e+05
    2.2619199008e-02    1.0229500781e+05
    2.2640828043e-02    1.0231347656e+05
    2.2662445903e-02    1.0233331250e+05
    2.2684050724e-02    1.0235177344e+05
    2.2705646232e-02    1.0236340625e+05
    2.2727232426e-02    1.0236908594e+05
    2.2748809308e-02    1.0237232031e+05
    2.2770375013e-02    1.0237316406e+05
    2.2791929543e-02    1.0238078125e+05
    2.2813472897e-02    1.0237746094e+05
    2.2835006937e-02    1.0236972656e+05
    2.2856531665e-02    1.0235871094e+05
    2.2878047079e-02    1.0235231250e+05
    2.2899549454e-02    1.0234658594e+05
    2.2921044379e-02    1.0233874219e+05
    2.2942528129e-02    1.0233477344e+05
    2.2964000702e-02    1.0232007031e+05
    2.2985465825e-02    1.0230918750e+05
    2.3006917909e-02    1.0229135156e+05
    2.3028360680e-02    1.0227128906e+05
    2.3049792275e-02    1.0225152344e+05
    2.3071214557e-02    1.0223033594e+05
    2.3092625663e-02    1.0221522656e+05
    2.3114029318e-02    1.0219978125e+05
    2.3135419935e-02    1.0218008594e+05
    2.3156799376e-02    1.0216446094e+05
    2.3178169504e-02    1.0213982031e+05
    2.3199530318e-02    1.0212456250e+05
    2.3220879957e-02    1.0211011719e+05
    2.3242218420e-02    1.0209581250e+05
    2.3263547570e-02    1.0208691406e+05
    2.3284865543e-02    1.0207428906e+05
    2.3306174204e-02    1.0206589844e+05
    2.3327469826e-02    1.0206346875e+05
    2.3348756135e-02    1.0206558594e+05
    2.3370031267e-02    1.0206971094e+05
    2.3391297087e-02    1.0207618750e+05
    2.3412553594e-02    1.0208344531e+05
    2.3433798924e-02    1.0209622656e+05
    2.3455033079e-02    1.0210815625e+05
    2.3476256058e-02    1.0212158594e+05
    2.3497469723e-02    1.0214093750e+05
    2.3518672213e-02    1.0215808594e+05
    2.3539865389e-02    1.0217696094e+05
    2.3561049253e-02    1.0219738281e+05
    2.3582221940e-02    1.0221894531e+05
    2.3603385314e-02    1.0224185156e+05
    2.3624535650e-02    1.0227091406e+05
    2.3645676672e-02    1.0229025781e+05
    2.3666808382e-02    1.0231057031e+05
    2.3687927052e-02    1.0232727344e+05
    2.3709038273e-02    1.0233889844e+05
    2.3730138317e-02    1.0234803125e+05
    2.3751227185e-02    1.0235475781e+05
    2.3772306740e-02    1.0235552344e+05
    2.3793375120e-02    1.0235022656e+05
    2.3814432323e-02    1.0233765625e+05
    2.3835480213e-02    1.0232042969e+05
    2.3856516927e-02    1.0230056250e+05
    2.3877544329e-02    1.0228083594e+05
    2.3898560554e-02    1.0225902344e+05
    2.3919565603e-02    1.0222524219e+05
    2.3940561339e-02    1.0218840625e+05
    2.3961545900e-02    1.0214902344e+05
    2.3982519284e-02    1.0210656250e+05
    2.4003483355e-02    1.0206171875e+05
    2.4024436250e-02    1.0201964844e+05
    2.4045377970e-02    1.0197953125e+05
    2.4066310376e-02    1.0193778906e+05
    2.4087233469e-02    1.0190491406e+05
    2.4108145386e-02    1.0187942969e+05
    2.4129044265e-02    1.0186460156e+05
    2.4149935693e-02    1.0185683594e+05
    2.4170814082e-02    1.0186028125e+05
    2.4191683158e-02    1.0186859375e+05
    2.4212542921e-02    1.0188535156e+05
    2.4233391508e-02    1.0191508594e+05
    2.4254228920e-02    1.0195277344e+05
    2.4275057018e-02    1.0199055469e+05
    2.4295873940e-02    1.0202797656e+05
    2.4316681549e-02    1.0207266406e+05
    2.4337477982e-02    1.0211097656e+05
    2.4358265102e-02    1.0215166406e+05
    2.4379042909e-02    1.0219435156e+05
    2.4399809539e-02    1.0222922656e+05
    2.4420566857e-02    1.0226057031e+05
    2.4441312999e-02    1.0229403125e+05
    2.4462047964e-02    1.0231785156e+05
    2.4482775480e-02    1.0234721875e+05
    2.4503491819e-02    1.0236725000e+05
    2.4524198845e-02    1.0238263281e+05
    2.4544894695e-02    1.0240128125e+05
    2.4565581232e-02    1.0241919531e+05
    2.4586258456e-02    1.0242731250e+05
    2.4606924504e-02    1.0243880469e+05
    2.4627581239e-02    1.0244768750e+05
    2.4648228660e-02    1.0245607031e+05
    2.4668866768e-02    1.0246127344e+05
    2.4689495564e-02    1.0246577344e+05
    2.4710113183e-02    1.0246922656e+05
    2.4730721489e-02    1.0247727344e+05
    2.4751318619e-02    1.0248366406e+05
    2.4771906435e-02    1.0248550781e+05
    2.4792486802e-02    1.0248672656e+05
    2.4813055992e-02    1.0248722656e+05
    2.4833614007e-02    1.0248434375e+05
    2.4854162708e-02    1.0247957031e+05
    2.4874702096e-02    1.0247546875e+05
    2.4895232171e-02    1.0246491406e+05
    2.4915752932e-02    1.0245803906e+05
    2.4936262518e-02    1.0244987500e+05
    2.4956764653e-02    1.0243578906e+05
    2.4977253750e-02    1.0241927344e+05
    2.4997735396e-02    1.0240668750e+05
    2.5018205866e-02    1.0239302344e+05
    2.5038668886e-02    1.0237822656e+05
    2.5059120730e-02    1.0236246875e+05
    2.5079563260e-02    1.0235146875e+05
    2.5099996477e-02    1.0233828125e+05
    2.5120420381e-02    1.0232062500e+05
    2.5140833110e-02    1.0230192969e+05
    2.5161236525e-02    1.0229177344e+05
    2.5181630626e-02    1.0227228906e+05
    2.5202017277e-02    1.0226172656e+05
    2.5222390890e-02    1.0226061719e+05
    2.5242757052e-02    1.0224346094e+05
    2.5263112038e-02    1.0223117969e+05
    2.5283459574e-02    1.0222146875e+05
    2.5303795934e-02    1.0221433594e+05
    2.5324124843e-02    1.0221166406e+05
    2.5344440714e-02    1.0220224219e+05
    2.5364749134e-02    1.0219347656e+05
    2.5385048240e-02    1.0218472656e+05
    2.5405339897e-02    1.0218171094e+05
    2.5425618514e-02    1.0217824219e+05
    2.5445887819e-02    1.0218096094e+05
    2.5466147810e-02    1.0218453906e+05
    2.5486400351e-02    1.0217941406e+05
    2.5506639853e-02    1.0217882031e+05
    2.5526873767e-02    1.0217935156e+05
    2.5547094643e-02    1.0217500781e+05
    2.5567308068e-02    1.0217041406e+05
    2.5587510318e-02    1.0217364844e+05
    2.5607703254e-02    1.0217266406e+05
    2.5627886876e-02    1.0217906250e+05
    2.5648061186e-02    1.0217699219e+05
    2.5668226182e-02    1.0217503906e+05
    2.5688380003e-02    1.0217324219e+05
    2.5708526373e-02    1.0218091406e+05
    2.5728661567e-02    1.0217983594e+05
    2.5748789310e-02    1.0217900781e+05
    2.5768904015e-02    1.0218521094e+05
    2.5789011270e-02    1.0218697656e+05
    2.5809109211e-02    1.0218638281e+05
    2.5829195976e-02    1.0218565625e+05
    2.5849273428e-02    1.0218486719e+05
    2.5869343430e-02    1.0218417969e+05
    2.5889402255e-02    1.0218600000e+05
    2.5909451768e-02    1.0219337500e+05
    2.5929493830e-02    1.0219394531e+05
    2.5949522853e-02    1.0219475781e+05
    2.5969544426e-02    1.0220053125e+05
    2.5989556685e-02    1.0219625000e+05
    2.6009559631e-02    1.0219710156e+05
    2.6029553264e-02    1.0220513281e+05
    2.6049537584e-02    1.0220924219e+05
    2.6069512591e-02    1.0221088281e+05
    2.6089478284e-02    1.0220828906e+05
    2.6109432802e-02    1.0220953906e+05
    2.6129379869e-02    1.0221461719e+05
    2.6149315760e-02    1.0221542969e+05
    2.6169244200e-02    1.0221712500e+05
    2.6189163327e-02    1.0221889844e+05
    2.6209073141e-02    1.0222089844e+05
    2.6228975505e-02    1.0222297656e+05
    2.6248866692e-02    1.0222530469e+05
    2.6268748567e-02    1.0222752344e+05
    2.6288621128e-02    1.0222946875e+05
    2.6308484375e-02    1.0223125000e+05
    2.6328338310e-02    1.0223289844e+05
    2.6348184794e-02    1.0223422656e+05
    2.6368021965e-02    1.0223518750e+05
    2.6387847960e-02    1.0223614844e+05
    2.6407664642e-02    1.0223691406e+05
    2.6427472010e-02    1.0223589844e+05
    2.6447271928e-02    1.0223753906e+05
    2.6467062533e-02    1.0223725781e+05
    2.6486843824e-02    1.0223916406e+05
    2.6506617665e-02    1.0224489844e+05
    2.6526380330e-02    1.0224633594e+05
    2.6546133682e-02    1.0223843750e+05
    2.6565877721e-02    1.0224439844e+05
    2.6585612446e-02    1.0225062500e+05
    2.6605339721e-02    1.0225187500e+05
    2.6625057682e-02    1.0225291406e+05
    2.6644766331e-02    1.0225164844e+05
    2.6664465666e-02    1.0224503906e+05
    2.6684155688e-02    1.0224821875e+05
    2.6703836396e-02    1.0225183594e+05
    2.6723509654e-02    1.0224789844e+05
    2.6743173599e-02    1.0224921094e+05
    2.6762828231e-02    1.0225964844e+05
    2.6782475412e-02    1.0225890625e+05
    2.6802113280e-02    1.0225263281e+05
    2.6821739972e-02    1.0225317969e+05
    2.6841359213e-02    1.0225371875e+05
    2.6860967278e-02    1.0225435156e+05
    2.6880569756e-02    1.0225775781e+05
    2.6900164783e-02    1.0225858594e+05
    2.6919748634e-02    1.0225671094e+05
    2.6939325035e-02    1.0225725000e+05
    2.6958892122e-02    1.0225811719e+05
    2.6978449896e-02    1.0226165625e+05
    2.6997998357e-02    1.0225997656e+05
    2.7017539367e-02    1.0226081250e+05
    2.7037071064e-02    1.0226178125e+05
    2.7056595311e-02    1.0226291406e+05
    2.7076110244e-02    1.0226391406e+05
    2.7095617726e-02    1.0226490625e+05
    2.7115115896e-02    1.0226568750e+05
    2.7134604752e-02    1.0226652344e+05
    2.7154086158e-02    1.0226680469e+05
    2.7173558250e-02    1.0226721875e+05
    2.7193021029e-02    1.0226734375e+05
    2.7212476358e-02    1.0226716406e+05
    2.7231922373e-02    1.0226458594e+05
    2.7251357213e-02    1.0225916406e+05
    2.7270786464e-02    1.0226238281e+05
    2.7290204540e-02    1.0226374219e+05
    2.7309613302e-02    1.0225771094e+05
    2.7329014614e-02    1.0225946094e+05
    2.7348404750e-02    1.0226122656e+05
    2.7367785573e-02    1.0225633594e+05
    2.7387158945e-02    1.0225764844e+05
    2.7406521142e-02    1.0225903906e+05
    2.7425874025e-02    1.0225150781e+05
    2.7445219457e-02    1.0225380469e+05
    2.7464553714e-02    1.0225786719e+05
    2.7483878657e-02    1.0225289844e+05
    2.7503194287e-02    1.0225612500e+05
    2.7522502467e-02    1.0225247656e+05
    2.7541799471e-02    1.0225410156e+05
    2.7561087161e-02    1.0224677344e+05
    2.7580365539e-02    1.0224840625e+05
    2.7599634603e-02    1.0225222656e+05
    2.7618894354e-02    1.0225197656e+05
    2.7638144791e-02    1.0225203906e+05
    2.7657385916e-02    1.0225191406e+05
    2.7676619589e-02    1.0225196094e+05
    2.7695843950e-02    1.0225209375e+05
    2.7715058997e-02    1.0225225000e+05
    2.7734262869e-02    1.0225288281e+05
    2.7753459290e-02    1.0226052344e+05
    2.7772648260e-02    1.0225402344e+05
    2.7791827917e-02    1.0225458594e+05
    2.7810998261e-02    1.0225992969e+05
    2.7830159292e-02    1.0225605469e+05
    2.7849311009e-02    1.0225678906e+05
    2.7868455276e-02    1.0225744531e+05
    2.7887590230e-02    1.0226521875e+05
    2.7906717733e-02    1.0225862500e+05
    2.7925835922e-02    1.0225909375e+05
    2.7944946662e-02    1.0225937500e+05
    2.7964048088e-02    1.0225972656e+05
    2.7983140200e-02    1.0226021094e+05
    2.8002224863e-02    1.0226084375e+05
    2.8021300212e-02    1.0226178906e+05
    2.8040368110e-02    1.0226290625e+05
    2.8059426695e-02    1.0226402344e+05
    2.8078475967e-02    1.0226757031e+05
    2.8097519651e-02    1.0226594531e+05
    2.8116554022e-02    1.0226682031e+05
    2.8135580942e-02    1.0227509375e+05
    2.8154598549e-02    1.0227294531e+05
    2.8173606843e-02    1.0226953906e+05
    2.8192607686e-02    1.0227006250e+05
    2.8211599216e-02    1.0227277344e+05
    2.8230583295e-02    1.0227533594e+05
    2.8249559924e-02    1.0227932031e+05
    2.8268527240e-02    1.0227435156e+05
    2.8287487105e-02    1.0227030469e+05
    2.8306435794e-02    1.0227282031e+05
    2.8325378895e-02    1.0227752344e+05
    2.8344312683e-02    1.0227258594e+05
    2.8363237157e-02    1.0227521094e+05
    2.8382156044e-02    1.0227325000e+05
    2.8401065618e-02    1.0227716406e+05
    2.8419965878e-02    1.0227032031e+05
    2.8438858688e-02    1.0226988281e+05
    2.8457742184e-02    1.0227462500e+05
    2.8476616368e-02    1.0227174219e+05
    2.8495483100e-02    1.0226864844e+05
    2.8514338657e-02    1.0226803125e+05
    2.8533160686e-02    1.0226696875e+05
    2.8551930562e-02    1.0226149219e+05
    2.8570635244e-02    1.0226014844e+05
    2.8589271009e-02    1.0225866406e+05
    2.8607837856e-02    1.0225712500e+05
    2.8626350686e-02    1.0225041406e+05
    2.8644818813e-02    1.0224903125e+05
    2.8663259000e-02    1.0224785156e+05
    2.8681686148e-02    1.0224694531e+05
    2.8700113297e-02    1.0224635156e+05
    2.8718546033e-02    1.0224580469e+05
    2.8736986220e-02    1.0224490625e+05
    2.8755431995e-02    1.0223683594e+05
    2.8773877770e-02    1.0223269531e+05
    2.8792314231e-02    1.0223575000e+05
    2.8810730204e-02    1.0223865625e+05
    2.8829116374e-02    1.0223274219e+05
    2.8847465292e-02    1.0222860156e+05
    2.8865773231e-02    1.0222653125e+05
    2.8884036466e-02    1.0222757031e+05
    2.8902258724e-02    1.0222994531e+05
    2.8920443729e-02    1.0222728125e+05
    2.8938598931e-02    1.0222691406e+05
    2.8956729919e-02    1.0223049219e+05
    2.8974846005e-02    1.0223005469e+05
    2.8992949054e-02    1.0223013281e+05
    2.9011042789e-02    1.0223046094e+05
    2.9029129073e-02    1.0223134375e+05
    2.9047204182e-02    1.0224165625e+05
    2.9065268114e-02    1.0224291406e+05
    2.9083315283e-02    1.0224414844e+05
    2.9101338238e-02    1.0224507031e+05
    2.9119335115e-02    1.0224559375e+05
    2.9137304053e-02    1.0224628906e+05
    2.9155241325e-02    1.0224687500e+05
    2.9173148796e-02    1.0224787500e+05
    2.9191024601e-02    1.0225696094e+05
    2.9208874330e-02    1.0226135156e+05
    2.9226697981e-02    1.0226408594e+05
    2.9244501144e-02    1.0226700000e+05
    2.9262285680e-02    1.0226986719e+05
    2.9280053452e-02    1.0227258594e+05
    2.9297806323e-02    1.0227519531e+05
    2.9315544292e-02    1.0227742969e+05
    2.9333265498e-02    1.0227958594e+05
    2.9350971803e-02    1.0228150781e+05
    2.9368655756e-02    1.0228353125e+05
    2.9386319220e-02    1.0228532031e+05
    2.9403960332e-02    1.0228713281e+05
    2.9421577230e-02    1.0228894531e+05
    2.9439168051e-02    1.0229071094e+05
    2.9456734657e-02    1.0229250781e+05
    2.9474277049e-02    1.0229211719e+05
    2.9491795227e-02    1.0229153125e+05
    2.9509292915e-02    1.0228766406e+05
    2.9526771978e-02    1.0229091406e+05
    2.9544232413e-02    1.0229021094e+05
    2.9561674222e-02    1.0229646094e+05
    2.9579099268e-02    1.0229846094e+05
    2.9596509412e-02    1.0229515625e+05
    2.9613900930e-02    1.0229685156e+05
    2.9631273821e-02    1.0229835156e+05
    2.9648626223e-02    1.0229966406e+05
    2.9665958136e-02    1.0229618750e+05
    2.9683271423e-02    1.0229125781e+05
    2.9700560495e-02    1.0228877344e+05
    2.9717829078e-02    1.0228078906e+05
    2.9735075310e-02    1.0227949219e+05
    2.9752301052e-02    1.0227783594e+05
    2.9769508168e-02    1.0226694531e+05
    2.9786696658e-02    1.0226489844e+05
    2.9803866521e-02    1.0226260156e+05
    2.9821017757e-02    1.0225580469e+05
    2.9838152230e-02    1.0224777344e+05
    2.9855269939e-02    1.0223539844e+05
    2.9872370884e-02    1.0223166406e+05
    2.9889453202e-02    1.0222302344e+05
    2.9906518757e-02    1.0221409375e+05
    2.9923565686e-02    1.0220959375e+05
    2.9940593988e-02    1.0220492969e+05
    2.9957601801e-02    1.0220024219e+05
    2.9974590987e-02    1.0219508594e+05
    2.9991561547e-02    1.0218030469e+05
    3.0008511618e-02    1.0217452344e+05
    3.0025444925e-02    1.0216858594e+05
    3.0042361468e-02    1.0216275781e+05
    3.0059259385e-02    1.0215716406e+05
    3.0076142401e-02    1.0216135156e+05
    3.0093006790e-02    1.0215697656e+05
    3.0109854415e-02    1.0216252344e+05
    3.0126683414e-02    1.0216853125e+05
    3.0143497512e-02    1.0216596094e+05
    3.0160292983e-02    1.0217321094e+05
    3.0177071691e-02    1.0217196094e+05
    3.0193833634e-02    1.0218036719e+05
    3.0210576952e-02    1.0218950000e+05
    3.0227303505e-02    1.0219015625e+05
    3.0244011432e-02    1.0220072656e+05
    3.0260702595e-02    1.0220712500e+05
    3.0277376994e-02    1.0221484375e+05
    3.0294034630e-02    1.0221808594e+05
    3.0310675502e-02    1.0223097656e+05
    3.0327299610e-02    1.0223497656e+05
    3.0343905091e-02    1.0224408594e+05
    3.0360495672e-02    1.0225239844e+05
    3.0377071351e-02    1.0225669531e+05
    3.0393628404e-02    1.0226094531e+05
    3.0410168692e-02    1.0225619531e+05
    3.0426690355e-02    1.0226043750e+05
    3.0443195254e-02    1.0226478906e+05
    3.0459685251e-02    1.0226925781e+05
    3.0476156622e-02    1.0227360156e+05
    3.0492611229e-02    1.0227785156e+05
    3.0509050936e-02    1.0227810156e+05
    3.0525473878e-02    1.0228236719e+05
    3.0541881919e-02    1.0228144531e+05
    3.0558273196e-02    1.0228115625e+05
    3.0574647710e-02    1.0227949219e+05
    3.0591005459e-02    1.0228303906e+05
    3.0607348308e-02    1.0228206250e+05
    3.0623674393e-02    1.0228533594e+05
    3.0639985576e-02    1.0228860156e+05
    3.0656279996e-02    1.0229191406e+05
    3.0672557652e-02    1.0228978906e+05
    3.0688818544e-02    1.0229272656e+05
    3.0705062672e-02    1.0229116406e+05
    3.0721291900e-02    1.0228827344e+05
    3.0737506226e-02    1.0229030469e+05
    3.0753703788e-02    1.0228778906e+05
    3.0769886449e-02    1.0228950000e+05
    3.0786054209e-02    1.0228602344e+05
    3.0802207068e-02    1.0228728125e+05
    3.0818343163e-02    1.0228877344e+05
    3.0834466219e-02    1.0229014844e+05
    3.0850572512e-02    1.0229158594e+05
    3.0866663903e-02    1.0229285156e+05
    3.0882738531e-02    1.0229378125e+05
    3.0898798257e-02    1.0229022656e+05
    3.0914843082e-02    1.0228782031e+05
    3.0930871144e-02    1.0228719531e+05
    3.0946886167e-02    1.0228878125e+05
    3.0962884426e-02    1.0229346094e+05
    3.0978867784e-02    1.0229105469e+05
    3.0994836241e-02    1.0228364844e+05
    3.1010789797e-02    1.0228325781e+05
    3.1026728451e-02    1.0228282031e+05
    3.1042650342e-02    1.0228209375e+05
    3.1058559194e-02    1.0228113281e+05
    3.1074455008e-02    1.0227983594e+05
    3.1090334058e-02    1.0227834375e+05
    3.1106200069e-02    1.0227681250e+05
    3.1122051179e-02    1.0227533594e+05
    3.1137887388e-02    1.0227391406e+05
    3.1153710559e-02    1.0227278125e+05
    3.1169516966e-02    1.0227153906e+05
    3.1185310334e-02    1.0227010156e+05
    3.1201090664e-02    1.0226891406e+05
    3.1216854230e-02    1.0226997656e+05
    3.1232602894e-02    1.0227512500e+05
    3.1248336658e-02    1.0226694531e+05
    3.1264055520e-02    1.0226271094e+05
    3.1279761344e-02    1.0226092969e+05
    3.1295452267e-02    1.0225932031e+05
    3.1311132014e-02    1.0225783594e+05
    3.1326796860e-02    1.0225652344e+05
    3.1342446804e-02    1.0226268750e+05
    3.1358085573e-02    1.0226409375e+05
    3.1373709440e-02    1.0226355469e+05
    3.1389318407e-02    1.0226314844e+05
    3.1404916197e-02    1.0226828125e+05
    3.1420499086e-02    1.0227271094e+05
    3.1436067075e-02    1.0227314844e+05
    3.1451620162e-02    1.0227366406e+05
    3.1467158347e-02    1.0227433594e+05
    3.1482685357e-02    1.0227522656e+05
    3.1498193741e-02    1.0228343750e+05
    3.1513694674e-02    1.0228663281e+05
    3.1529176980e-02    1.0228790625e+05
    3.1544648111e-02    1.0228935156e+05
    3.1560108066e-02    1.0229081250e+05
    3.1575553119e-02    1.0229247656e+05
    3.1590986997e-02    1.0229682031e+05
    3.1606405973e-02    1.0229890625e+05
    3.1621813774e-02    1.0230316406e+05
    3.1637206674e-02    1.0230272656e+05
    3.1652588397e-02    1.0230267969e+05
    3.1667951494e-02    1.0230471094e+05
    3.1683307141e-02    1.0230652344e+05
    3.1698647887e-02    1.0230818750e+05
    3.1713977456e-02    1.0230974219e+05
    3.1729292125e-02    1.0231111719e+05
    3.1744595617e-02    1.0230285156e+05
    3.1759884208e-02    1.0230355469e+05
    3.1775161624e-02    1.0230392969e+05
    3.1790427864e-02    1.0230427344e+05
    3.1805675477e-02    1.0230477344e+05
    3.1820915639e-02    1.0230514844e+05
    3.1836140901e-02    1.0230558594e+05
    3.1851354986e-02    1.0230621094e+05
    3.1866557896e-02    1.0230685156e+05
    3.1881745905e-02    1.0230759375e+05
    3.1896922737e-02    1.0230839844e+05
    3.1912088394e-02    1.0230902344e+05
    3.1927239150e-02    1.0230955469e+05
    3.1942378730e-02    1.0230817969e+05
    3.1957507133e-02    1.0230635156e+05
    3.1972620636e-02    1.0230141406e+05
    3.1987726688e-02    1.0230110156e+05
    3.2002814114e-02    1.0230062500e+05
    3.2017890364e-02    1.0230000000e+05
    3.2032959163e-02    1.0229927344e+05
    3.2048013061e-02    1.0229833594e+05
    3.2063052058e-02    1.0229738281e+05
    3.2078083605e-02    1.0229224219e+05
    3.2093103975e-02    1.0228612500e+05
    3.2108109444e-02    1.0228503906e+05
    3.2123107463e-02    1.0228933594e+05
    3.2138090581e-02    1.0228860156e+05
    3.2153062522e-02    1.0229221875e+05
    3.2168023288e-02    1.0229183594e+05
    3.2182972878e-02    1.0229158594e+05
    3.2197911292e-02    1.0228627344e+05
    3.2212834805e-02    1.0228171094e+05
    3.2227750868e-02    1.0228111719e+05
    3.2242652029e-02    1.0228535156e+05
    3.2257542014e-02    1.0228469531e+05
    3.2272424549e-02    1.0228393750e+05
    3.2287292182e-02    1.0228309375e+05
    3.2302148640e-02    1.0228227344e+05
    3.2316997647e-02    1.0227896094e+05
    3.2331831753e-02    1.0227553906e+05
    3.2346658409e-02    1.0227478906e+05
    3.2361470163e-02    1.0227387500e+05
    3.2376270741e-02    1.0227324219e+05
    3.2391063869e-02    1.0227258594e+05
    3.2405842096e-02    1.0227222656e+05
    3.2420612872e-02    1.0227212500e+05
    3.2435368747e-02    1.0227203906e+05
    3.2450113446e-02    1.0227227344e+05
    3.2464850694e-02    1.0227753125e+05
    3.2479573041e-02    1.0227790625e+05
    3.2494287938e-02    1.0227839844e+05
    3.2508991659e-02    1.0227889844e+05
    3.2523684204e-02    1.0227934375e+05
    3.2538365573e-02    1.0227978125e+05
    3.2553035766e-02    1.0228247656e+05
    3.2567698509e-02    1.0228496094e+05
    3.2582346350e-02    1.0228553125e+05
    3.2596986741e-02    1.0228389844e+05
    3.2611619681e-02    1.0228175000e+05
    3.2626237720e-02    1.0228656250e+05
    3.2640848309e-02    1.0228703906e+05
    3.2655447721e-02    1.0228762500e+05
    3.2670035958e-02    1.0228840625e+05
    3.2684613019e-02    1.0228932031e+05
    3.2699178904e-02    1.0228800781e+05
    3.2713737339e-02    1.0228903125e+05
    3.2728284597e-02    1.0229217969e+05
    3.2742820680e-02    1.0229310156e+05
    3.2757349312e-02    1.0229388281e+05
    3.2771866769e-02    1.0229471875e+05
    3.2786373049e-02    1.0229549219e+05
    3.2800871879e-02    1.0229635156e+05
    3.2815355808e-02    1.0229700781e+05
    3.2829832286e-02    1.0229777344e+05
    3.2844301313e-02    1.0229586719e+05
    3.2858755440e-02    1.0229892969e+05
    3.2873202115e-02    1.0229942969e+05
    3.2887637615e-02    1.0229989844e+05
    3.2902065665e-02    1.0230028906e+05
    3.2916482538e-02    1.0230072656e+05
    3.2930891961e-02    1.0230106250e+05
    3.2945290208e-02    1.0230128906e+05
    3.2959677279e-02    1.0230146094e+05
    3.2974056900e-02    1.0229909375e+05
    3.2988425344e-02    1.0229725000e+05
    3.3002786338e-02    1.0230032031e+05
    3.3017136157e-02    1.0230100781e+05
    3.3031478524e-02    1.0229969531e+05
    3.3045809716e-02    1.0229549219e+05
    3.3060129732e-02    1.0230342969e+05
    3.3074442297e-02    1.0230628906e+05
    3.3088747412e-02    1.0230715625e+05
    3.3103041351e-02    1.0230596875e+05
    3.3117324114e-02    1.0230466406e+05
    3.3131599426e-02    1.0230962500e+05
    3.3145863563e-02    1.0231050781e+05
    3.3160120249e-02    1.0230934375e+05
    3.3174365759e-02    1.0231013281e+05
    3.3188603818e-02    1.0231109375e+05
    3.3202830702e-02    1.0231437500e+05
    3.3217050135e-02    1.0231583594e+05
    3.3231258392e-02    1.0231727344e+05
    3.3245459199e-02    1.0231910156e+05
    3.3259648830e-02    1.0232090625e+05
    3.3273831010e-02    1.0232277344e+05
    3.3288005739e-02    1.0232452344e+05
    3.3302169293e-02    1.0232634375e+05
    3.3316325396e-02    1.0232832031e+05
    3.3330474049e-02    1.0233019531e+05
    3.3344611526e-02    1.0233210156e+05
    3.3358741552e-02    1.0233400000e+05
    3.3372864127e-02    1.0233603906e+05
    3.3386975527e-02    1.0233781250e+05
    3.3401079476e-02    1.0233958594e+05
    3.3415172249e-02    1.0234128906e+05
    3.3429257572e-02    1.0234266406e+05
    3.3443335444e-02    1.0234396094e+05
    3.3457405865e-02    1.0234503906e+05
    3.3471468836e-02    1.0234593750e+05
    3.3485524356e-02    1.0234660156e+05
    3.3499568701e-02    1.0234714844e+05
    3.3513605595e-02    1.0234505469e+05
    3.3527631313e-02    1.0234522656e+05
    3.3541653305e-02    1.0234071875e+05
    3.3555664122e-02    1.0233846094e+05
    3.3569667488e-02    1.0233796094e+05
    3.3583663404e-02    1.0233747656e+05
    3.3597648144e-02    1.0233897656e+05
    3.3611625433e-02    1.0233810156e+05
    3.3625595272e-02    1.0233487500e+05
    3.3639557660e-02    1.0233349219e+05
    3.3653512597e-02    1.0233178906e+05
    3.3667460084e-02    1.0232472656e+05
    3.3681396395e-02    1.0232225000e+05
    3.3695328981e-02    1.0231508594e+05
    3.3709254116e-02    1.0230675000e+05
    3.3723168075e-02    1.0230303906e+05
    3.3737078309e-02    1.0229902344e+05
    3.3750977367e-02    1.0229739844e+05
    3.3764872700e-02    1.0229539844e+05
    3.3778760582e-02    1.0229086719e+05
    3.3792637289e-02    1.0228185156e+05
    3.3806510270e-02    1.0227212500e+05
    3.3820372075e-02    1.0226697656e+05
    3.3834230155e-02    1.0226189844e+05
    3.3848077059e-02    1.0225672656e+05
    3.3861916512e-02    1.0224652344e+05
    3.3875752240e-02    1.0224146875e+05
    3.3889576793e-02    1.0223661719e+05
    3.3903393894e-02    1.0222755469e+05
    3.3917203546e-02    1.0222537500e+05
    3.3931009471e-02    1.0222341406e+05
    3.3944804221e-02    1.0221915625e+05
    3.3958595246e-02    1.0221921094e+05
    3.3972378820e-02    1.0221546094e+05
    3.3986151218e-02    1.0221189844e+05
    3.3999919891e-02    1.0220877344e+05
    3.4013681114e-02    1.0220600781e+05
    3.4027434886e-02    1.0220355469e+05
    3.4041177481e-02    1.0220416406e+05
    3.4054916352e-02    1.0220546094e+05
    3.4068647772e-02    1.0220437500e+05
    3.4082375467e-02    1.0220366406e+05
    3.4096091986e-02    1.0220768750e+05
    3.4109804779e-02    1.0221310156e+05
    3.4123510122e-02    1.0221407031e+05
    3.4137208015e-02    1.0221555469e+05
    3.4150898457e-02    1.0222178906e+05
    3.4164581448e-02    1.0222937500e+05
    3.4178260714e-02    1.0223238281e+05
    3.4191932529e-02    1.0223591406e+05
    3.4205596894e-02    1.0223968750e+05
    3.4219253808e-02    1.0224635156e+05
    3.4232903272e-02    1.0225760156e+05
    3.4246545285e-02    1.0226233594e+05
    3.4260183573e-02    1.0226727344e+05
    3.4273810685e-02    1.0227643750e+05
    3.4287434071e-02    1.0228161719e+05
    3.4301050007e-02    1.0228683594e+05
    3.4314658493e-02    1.0229703906e+05
    3.4328263253e-02    1.0230231250e+05
    3.4341860563e-02    1.0230735156e+05
    3.4355450422e-02    1.0230964844e+05
    3.4369036555e-02    1.0231153906e+05
    3.4382611513e-02    1.0231591406e+05
    3.4396182746e-02    1.0231996875e+05
    3.4409742802e-02    1.0232400000e+05
    3.4423299134e-02    1.0232775781e+05
    3.4436848015e-02    1.0233102344e+05
    3.4450393170e-02    1.0233421094e+05
    3.4463927150e-02    1.0233687500e+05
    3.4477461129e-02    1.0232990625e+05
    3.4490987659e-02    1.0233171875e+05
    3.4504506737e-02    1.0233317969e+05
    3.4518022090e-02    1.0233446094e+05
    3.4531529993e-02    1.0233775000e+05
    3.4545030445e-02    1.0234096094e+05
    3.4558523446e-02    1.0233975781e+05
    3.4572008997e-02    1.0233827344e+05
    3.4585487098e-02    1.0233852344e+05
    3.4598957747e-02    1.0233338281e+05
    3.4612424672e-02    1.0233065625e+05
    3.4625884145e-02    1.0232761719e+05
    3.4639336169e-02    1.0232635156e+05
    3.4652780741e-02    1.0232485156e+05
    3.4666225314e-02    1.0232299219e+05
    3.4679658711e-02    1.0231603906e+05
    3.4693088382e-02    1.0231175781e+05
    3.4706510603e-02    1.0230741406e+05
    3.4719929099e-02    1.0230508594e+05
    3.4733340144e-02    1.0230478906e+05
    3.4746743739e-02    1.0230030469e+05
    3.4760143608e-02    1.0229777344e+05
    3.4773536026e-02    1.0229546094e+05
    3.4786924720e-02    1.0229333594e+05
    3.4800305963e-02    1.0229128125e+05
    3.4813679755e-02    1.0228932031e+05
    3.4827046096e-02    1.0228728906e+05
    3.4840408713e-02    1.0228527344e+05
    3.4853763878e-02    1.0228331250e+05
    3.4867111593e-02    1.0228130469e+05
    3.4880455583e-02    1.0227721094e+05
    3.4893795848e-02    1.0227539844e+05
    3.4907124937e-02    1.0227589844e+05
    3.4920454025e-02    1.0227453906e+05
    3.4933775663e-02    1.0227340625e+05
    3.4947093576e-02    1.0227499219e+05
    3.4960404038e-02    1.0227674219e+05
    3.4973710775e-02    1.0227611719e+05
    3.4987010062e-02    1.0227563281e+05
endcurve
