Curveplot
LS-DYNA keyword deck by LS-PrePost                          
Time
Pressure
Defined Connection
Pressure @ 81 #pts=1745
* Minval=     9.9989585938e+04 at time=         0.0011985785
* Maxval=     1.6688401562e+05 at time=         0.0076235277
    0.0000000000e+00    9.9998710938e+04
    3.3812357287e-05    9.9998710938e+04
    6.1326652940e-05    9.9996585938e+04
    8.9102875791e-05    9.9998960938e+04
    1.1682785407e-04    9.9999179688e+04
    1.4461828687e-04    9.9999562500e+04
    1.7236733402e-04    1.0000239844e+05
    2.0016246708e-04    9.9998476562e+04
    2.2795486439e-04    1.0000140625e+05
    2.5574557367e-04    1.0000205469e+05
    2.8353667585e-04    1.0000243750e+05
    3.1133697485e-04    1.0000038281e+05
    3.3912662184e-04    1.0000257031e+05
    3.6691734567e-04    9.9997781250e+04
    3.9470891352e-04    1.0000441406e+05
    4.2249175021e-04    9.9995218750e+04
    4.5027161832e-04    9.9999531250e+04
    4.7804549104e-04    9.9999648438e+04
    5.0581363030e-04    1.0000213281e+05
    5.3357944125e-04    1.0000462500e+05
    5.6134146871e-04    9.9992906250e+04
    5.8909942163e-04    9.9999281250e+04
    6.1685312539e-04    1.0000153906e+05
    6.4460188150e-04    1.0000183594e+05
    6.7234638846e-04    1.0000189844e+05
    7.0008635521e-04    1.0000156250e+05
    7.2782178177e-04    1.0000128125e+05
    7.5555208605e-04    1.0000130469e+05
    7.8327720985e-04    1.0000146875e+05
    8.1099680392e-04    1.0000147656e+05
    8.3871174138e-04    9.9996585938e+04
    8.6642213864e-04    1.0000064844e+05
    8.9412782108e-04    9.9998054688e+04
    9.2182843946e-04    1.0000041406e+05
    9.4952445943e-04    1.0000040625e+05
    9.7721535712e-04    9.9994406250e+04
    1.0049008997e-03    9.9991835938e+04
    1.0325826006e-03    1.0000003906e+05
    1.0602590628e-03    1.0001127344e+05
    1.0879321489e-03    1.0001602344e+05
    1.1155996472e-03    1.0000303906e+05
    1.1432634201e-03    9.9993500000e+04
    1.1709230021e-03    9.9990257812e+04
    1.1985785095e-03    9.9989585938e+04
    1.2262313394e-03    9.9998781250e+04
    1.2538790470e-03    1.0001331250e+05
    1.2815232622e-03    1.0000511719e+05
    1.3091630535e-03    1.0000163281e+05
    1.3368004002e-03    9.9996523438e+04
    1.3644339051e-03    1.0001235156e+05
    1.3920635683e-03    1.0003175781e+05
    1.4196902048e-03    1.0006071094e+05
    1.4473132323e-03    1.0009997656e+05
    1.4749332331e-03    1.0018416406e+05
    1.5025498578e-03    1.0031568750e+05
    1.5301633393e-03    1.0051139844e+05
    1.5577742597e-03    1.0078318750e+05
    1.5853822697e-03    1.0110347656e+05
    1.6129877185e-03    1.0147228906e+05
    1.6405890929e-03    1.0185953906e+05
    1.6681876732e-03    1.0225024219e+05
    1.6957829939e-03    1.0259797656e+05
    1.7233766848e-03    1.0287291406e+05
    1.7509678146e-03    1.0305266406e+05
    1.7785291420e-03    1.0313619531e+05
    1.8060547300e-03    1.0313571094e+05
    1.8335470231e-03    1.0305675000e+05
    1.8610082334e-03    1.0291264844e+05
    1.8884401070e-03    1.0275141406e+05
    1.9158447394e-03    1.0258015625e+05
    1.9432241097e-03    1.0241697656e+05
    1.9705800805e-03    1.0229355469e+05
    1.9979148638e-03    1.0221361719e+05
    2.0252298564e-03    1.0219410156e+05
    2.0525271539e-03    1.0221466406e+05
    2.0798076876e-03    1.0227382031e+05
    2.1070730872e-03    1.0234627344e+05
    2.1343247499e-03    1.0242171875e+05
    2.1615643054e-03    1.0247909375e+05
    2.1887931507e-03    1.0252546094e+05
    2.2160108201e-03    1.0254653906e+05
    2.2432196420e-03    1.0254183594e+05
    2.2704207804e-03    1.0251609375e+05
    2.2976147011e-03    1.0247564844e+05
    2.3248014040e-03    1.0244683594e+05
    2.3519827519e-03    1.0241778906e+05
    2.3791582789e-03    1.0239558594e+05
    2.4063293822e-03    1.0238475781e+05
    2.4334960617e-03    1.0238172656e+05
    2.4606597144e-03    1.0239432031e+05
    2.4878205732e-03    1.0240821094e+05
    2.5149781723e-03    1.0242297656e+05
    2.5421329774e-03    1.0243902344e+05
    2.5692859199e-03    1.0244797656e+05
    2.5964374654e-03    1.0244917969e+05
    2.6235871483e-03    1.0244878125e+05
    2.6507352013e-03    1.0243909375e+05
    2.6778825559e-03    1.0242671875e+05
    2.7050296776e-03    1.0241805469e+05
    2.7321761008e-03    1.0241771094e+05
    2.7593218256e-03    1.0242011719e+05
    2.7864677832e-03    1.0242160156e+05
    2.8136142064e-03    1.0242371094e+05
    2.8407603968e-03    1.0243336719e+05
    2.8679079842e-03    1.0244594531e+05
    2.8950548731e-03    1.0246155469e+05
    2.9222022276e-03    1.0248457031e+05
    2.9493502807e-03    1.0252158594e+05
    2.9764990322e-03    1.0257083594e+05
    3.0036487151e-03    1.0263609375e+05
    3.0307997949e-03    1.0272187500e+05
    3.0579508748e-03    1.0281353906e+05
    3.0851035845e-03    1.0291938281e+05
    3.1122572254e-03    1.0302469531e+05
    3.1394117977e-03    1.0312136719e+05
    3.1665677670e-03    1.0320250000e+05
    3.1937246677e-03    1.0325675781e+05
    3.2208829653e-03    1.0329985156e+05
    3.2480424270e-03    1.0331100000e+05
    3.2752046827e-03    1.0329557031e+05
    3.2952371985e-03    1.0325671094e+05
    3.3145032357e-03    1.0322627344e+05
    3.3336398192e-03    1.0318778906e+05
    3.3528339118e-03    1.0314765625e+05
    3.3720366191e-03    1.0310152344e+05
    3.3912549261e-03    1.0305916406e+05
    3.4104890656e-03    1.0301430469e+05
    3.4297339153e-03    1.0297438281e+05
    3.4486323129e-03    1.0293044531e+05
    3.4671388566e-03    1.0287802344e+05
    3.4854323603e-03    1.0283096094e+05
    3.5036695190e-03    1.0277058594e+05
    3.5219141282e-03    1.0270610156e+05
    3.5401545465e-03    1.0263735156e+05
    3.5583588760e-03    1.0256450781e+05
    3.5765271168e-03    1.0249527344e+05
    3.5946895368e-03    1.0242813281e+05
    3.6139658187e-03    1.0236666406e+05
    3.6330535077e-03    1.0231853906e+05
    3.6521453876e-03    1.0228108594e+05
    3.6699753255e-03    1.0225275781e+05
    3.6875614896e-03    1.0223189844e+05
    3.7050142419e-03    1.0221575000e+05
    3.7224807311e-03    1.0219950781e+05
    3.7400643341e-03    1.0218050000e+05
    3.7577797193e-03    1.0216997656e+05
    3.7755726371e-03    1.0215189844e+05
    3.7933769636e-03    1.0214471875e+05
    3.8111612666e-03    1.0213478906e+05
    3.8289318327e-03    1.0212908594e+05
    3.8467168342e-03    1.0212532031e+05
    3.8645383902e-03    1.0212539844e+05
    3.8824023213e-03    1.0211503906e+05
    3.9002960548e-03    1.0210513281e+05
    3.9182156324e-03    1.0209158594e+05
    3.9361710660e-03    1.0207318750e+05
    3.9541716687e-03    1.0204865625e+05
    3.9733103476e-03    1.0203082031e+05
    3.9924201556e-03    1.0201290625e+05
    4.0104058571e-03    1.0199557031e+05
    4.0284004062e-03    1.0198735156e+05
    4.0464363992e-03    1.0198265625e+05
    4.0656095371e-03    1.0197796094e+05
    4.0847789496e-03    1.0197196094e+05
    4.1039343923e-03    1.0196666406e+05
    4.1219722480e-03    1.0195953125e+05
    4.1400394402e-03    1.0194787500e+05
    4.1591953486e-03    1.0193625000e+05
    4.1784178466e-03    1.0192816406e+05
    4.1976389475e-03    1.0192049219e+05
    4.2168586515e-03    1.0191202344e+05
    4.2360713705e-03    1.0191071875e+05
    4.2552771047e-03    1.0190039844e+05
    4.2744791135e-03    1.0188983594e+05
    4.2936825193e-03    1.0188787500e+05
    4.3128933758e-03    1.0186438281e+05
    4.3321144767e-03    1.0185347656e+05
    4.3513495475e-03    1.0183896094e+05
    4.3705995195e-03    1.0181835156e+05
    4.3898657896e-03    1.0179558594e+05
    4.4091497548e-03    1.0177496875e+05
    4.4284537435e-03    1.0175141406e+05
    4.4477786869e-03    1.0171921094e+05
    4.4671236537e-03    1.0167753906e+05
    4.4864914380e-03    1.0162540625e+05
    4.5058806427e-03    1.0156521094e+05
    4.5252908021e-03    1.0148603906e+05
    4.5447219163e-03    1.0140728906e+05
    4.5641721226e-03    1.0131621094e+05
    4.5836409554e-03    1.0121546094e+05
    4.6031279489e-03    1.0110303906e+05
    4.6226321720e-03    1.0098460156e+05
    4.6421540901e-03    1.0086250000e+05
    4.6616927721e-03    1.0073768750e+05
    4.6812482178e-03    1.0061556250e+05
    4.7008208930e-03    1.0050333594e+05
    4.7204112634e-03    1.0039799219e+05
    4.7400193289e-03    1.0030778125e+05
    4.7596455552e-03    1.0023361719e+05
    4.7792894766e-03    1.0017957031e+05
    4.7989510931e-03    1.0014703125e+05
    4.8186304048e-03    1.0013892969e+05
    4.8383255489e-03    1.0015313281e+05
    4.8580355942e-03    1.0018225000e+05
    4.8777610064e-03    1.0023169531e+05
    4.8975008540e-03    1.0029105469e+05
    4.9172551371e-03    1.0035355469e+05
    4.9370229244e-03    1.0041666406e+05
    4.9568060786e-03    1.0047783594e+05
    4.9766036682e-03    1.0053064844e+05
    4.9964170903e-03    1.0057310156e+05
    5.0162458792e-03    1.0061303906e+05
    5.0360900350e-03    1.0064036719e+05
    5.0559476949e-03    1.0066353906e+05
    5.0758207217e-03    1.0067553125e+05
    5.0957072526e-03    1.0068297656e+05
    5.1156077534e-03    1.0067600781e+05
    5.1355226897e-03    1.0066543750e+05
    5.1554525271e-03    1.0064864844e+05
    5.1753963344e-03    1.0062778906e+05
    5.1953555085e-03    1.0061512500e+05
    5.2153295837e-03    1.0059809375e+05
    5.2353194915e-03    1.0058672656e+05
    5.2553247660e-03    1.0057706250e+05
    5.2753463387e-03    1.0057383594e+05
    5.2953832783e-03    1.0057500000e+05
    5.3154369816e-03    1.0058287500e+05
    5.3355065174e-03    1.0058696875e+05
    5.3555918857e-03    1.0059472656e+05
    5.3756926209e-03    1.0059806250e+05
    5.3958082572e-03    1.0061121875e+05
    5.4159392603e-03    1.0062502344e+05
    5.4360851645e-03    1.0063653906e+05
    5.4562464356e-03    1.0065214844e+05
    5.4764230736e-03    1.0065335156e+05
    5.4966160096e-03    1.0066713281e+05
    5.5168238468e-03    1.0066406250e+05
    5.5370470509e-03    1.0066687500e+05
    5.5572865531e-03    1.0066247656e+05
    5.5775423534e-03    1.0066685156e+05
    5.5978130549e-03    1.0067808594e+05
    5.6181000546e-03    1.0068028906e+05
    5.6384028867e-03    1.0067241406e+05
    5.6587206200e-03    1.0067577344e+05
    5.6790532544e-03    1.0067697656e+05
    5.6994007900e-03    1.0067947656e+05
    5.7197632268e-03    1.0068328125e+05
    5.7401410304e-03    1.0068394531e+05
    5.7605337352e-03    1.0068817969e+05
    5.7809422724e-03    1.0069250000e+05
    5.8013652451e-03    1.0069569531e+05
    5.8218040504e-03    1.0069913281e+05
    5.8422577567e-03    1.0070255469e+05
    5.8627268299e-03    1.0070600781e+05
    5.8832112700e-03    1.0070958594e+05
    5.9037101455e-03    1.0072275781e+05
    5.9242248535e-03    1.0072712500e+05
    5.9447535314e-03    1.0073146094e+05
    5.9641525149e-03    1.0073592969e+05
    5.9830932878e-03    1.0074044531e+05
    6.0020405799e-03    1.0074510156e+05
    6.0210367665e-03    1.0075909375e+05
    6.0400799848e-03    1.0076538281e+05
    6.0591096990e-03    1.0076710156e+05
    6.0781282373e-03    1.0077558594e+05
    6.0972142965e-03    1.0077942969e+05
    6.1162756756e-03    1.0078202344e+05
    6.1353649944e-03    1.0078678906e+05
    6.1544459313e-03    1.0079397656e+05
    6.1734300107e-03    1.0080375781e+05
    6.1924448237e-03    1.0081264844e+05
    6.2115197070e-03    1.0082202344e+05
    6.2306127511e-03    1.0083492969e+05
    6.2497169711e-03    1.0084137500e+05
    6.2688281760e-03    1.0085732031e+05
    6.2879407778e-03    1.0086469531e+05
    6.3070552424e-03    1.0088167969e+05
    6.3261794858e-03    1.0089035156e+05
    6.3453060575e-03    1.0090877344e+05
    6.3644465990e-03    1.0092586719e+05
    6.3835908659e-03    1.0094621094e+05
    6.4027444459e-03    1.0097202344e+05
    6.4219115302e-03    1.0099171094e+05
    6.4410855994e-03    1.0100475781e+05
    6.4602680504e-03    1.0101789844e+05
    6.4794607460e-03    1.0103089844e+05
    6.4986641519e-03    1.0104361719e+05
    6.5178787336e-03    1.0104667969e+05
    6.5371058881e-03    1.0105616406e+05
    6.5563363023e-03    1.0106291406e+05
    6.5755699761e-03    1.0107114844e+05
    6.5948092379e-03    1.0107153125e+05
    6.6140629351e-03    1.0107083594e+05
    6.6333152354e-03    1.0106921875e+05
    6.6525745206e-03    1.0106680469e+05
    6.6718445159e-03    1.0106589844e+05
    6.6911154427e-03    1.0106903906e+05
    6.7104012705e-03    1.0106939844e+05
    6.7296870984e-03    1.0106915625e+05
    6.7489854991e-03    1.0107272656e+05
    6.7682852969e-03    1.0106771875e+05
    6.7875892855e-03    1.0106887500e+05
    6.8069072440e-03    1.0106853906e+05
    6.8262196146e-03    1.0106353125e+05
    6.8455408327e-03    1.0106542969e+05
    6.8648783490e-03    1.0106728906e+05
    6.8842126057e-03    1.0106421094e+05
    6.9035501219e-03    1.0106042969e+05
    6.9228983484e-03    1.0105377344e+05
    6.9422605447e-03    1.0105147656e+05
    6.9616222754e-03    1.0105610156e+05
    6.9809844717e-03    1.0106103125e+05
    7.0003494620e-03    1.0106169531e+05
    7.0197195746e-03    1.0106221094e+05
    7.0390999317e-03    1.0105309375e+05
    7.0584909990e-03    1.0105127344e+05
    7.0778946392e-03    1.0104196094e+05
    7.0973108523e-03    1.0103841406e+05
    7.1167377755e-03    1.0104660156e+05
    7.1361698210e-03    1.0104840625e+05
    7.1556069888e-03    1.0104818750e+05
    7.1750483476e-03    1.0105283594e+05
    7.1944966912e-03    1.0105191406e+05
    7.2139529511e-03    1.0105339844e+05
    7.2334166616e-03    1.0105727344e+05
    7.2528840974e-03    1.0105905469e+05
    7.2723543271e-03    1.0106243750e+05
    7.2918278165e-03    1.0107596875e+05
    7.3113050312e-03    1.0109721094e+05
    7.3307845742e-03    1.0114415625e+05
    7.3502692394e-03    1.0123000781e+05
    7.3697618209e-03    1.0141769531e+05
    7.3892641813e-03    1.0177377344e+05
    7.4087800458e-03    1.0247875781e+05
    7.4282912537e-03    1.0383214844e+05
    7.4477996677e-03    1.0627563281e+05
    7.4673094787e-03    1.1038328906e+05
    7.4868267402e-03    1.1666805469e+05
    7.5063589029e-03    1.2528535156e+05
    7.5258887373e-03    1.3565095312e+05
    7.5454111211e-03    1.4639968750e+05
    7.5649353676e-03    1.5579292188e+05
    7.5844703242e-03    1.6248946875e+05
    7.6040057465e-03    1.6604476562e+05
    7.6235276647e-03    1.6688401562e+05
    7.6430505142e-03    1.6591887500e+05
    7.6625877991e-03    1.6409785938e+05
    7.6821087860e-03    1.6221601562e+05
    7.7016241848e-03    1.6066284375e+05
    7.7211544849e-03    1.5948332812e+05
    7.7406810597e-03    1.5854242188e+05
    7.7602043748e-03    1.5761206250e+05
    7.7797495760e-03    1.5651540625e+05
    7.7992938459e-03    1.5514962500e+05
    7.8188432381e-03    1.5352251562e+05
    7.8384252265e-03    1.5171457812e+05
    7.8580006957e-03    1.4982025000e+05
    7.8775910661e-03    1.4796009375e+05
    7.8972103074e-03    1.4619709375e+05
    7.9168286175e-03    1.4454932812e+05
    7.9364804551e-03    1.4301407812e+05
    7.9561360180e-03    1.4156403125e+05
    7.9758102074e-03    1.4016539062e+05
    7.9955114052e-03    1.3879482812e+05
    8.0152126029e-03    1.3745326562e+05
    8.0349491909e-03    1.3614948438e+05
    8.0546662211e-03    1.3489214062e+05
    8.0743944272e-03    1.3370110938e+05
    8.0941170454e-03    1.3258981250e+05
    8.1138620153e-03    1.3156235938e+05
    8.1336386502e-03    1.3061667969e+05
    8.1534720957e-03    1.2974265625e+05
    8.1733558327e-03    1.2893491406e+05
    8.1932730973e-03    1.2817400781e+05
    8.2132071257e-03    1.2745622656e+05
    8.2330890000e-03    1.2676481250e+05
    8.2529615611e-03    1.2610881250e+05
    8.2727763802e-03    1.2547247656e+05
    8.2926023751e-03    1.2487790625e+05
    8.3124246448e-03    1.2431643750e+05
    8.3322748542e-03    1.2377883594e+05
    8.3521194756e-03    1.2327333594e+05
    8.3719678223e-03    1.2279117969e+05
    8.3917891607e-03    1.2232819531e+05
    8.4116021171e-03    1.2189021094e+05
    8.4314141423e-03    1.2146221094e+05
    8.4512168542e-03    1.2105919531e+05
    8.4710381925e-03    1.2067333594e+05
    8.4908353165e-03    1.2030244531e+05
    8.5106678307e-03    1.1995683594e+05
    8.5304882377e-03    1.1963428906e+05
    8.5503393784e-03    1.1932578125e+05
    8.5699046031e-03    1.1905147656e+05
    8.5892248899e-03    1.1879044531e+05
    8.6083402857e-03    1.1854603906e+05
    8.6272666231e-03    1.1832060156e+05
    8.6460309103e-03    1.1810241406e+05
    8.6646731943e-03    1.1789133594e+05
    8.6832325906e-03    1.1768342969e+05
    8.7017398328e-03    1.1748127344e+05
    8.7202098221e-03    1.1728721875e+05
    8.7386453524e-03    1.1709864844e+05
    8.7570473552e-03    1.1691421094e+05
    8.7753897533e-03    1.1674565625e+05
    8.7936492637e-03    1.1658115625e+05
    8.8118780404e-03    1.1642990625e+05
    8.8300397620e-03    1.1628635156e+05
    8.8481390849e-03    1.1614708594e+05
    8.8662039489e-03    1.1601966406e+05
    8.8842641562e-03    1.1589258594e+05
    8.9023411274e-03    1.1577143750e+05
    8.9204348624e-03    1.1565265625e+05
    8.9385388419e-03    1.1553396094e+05
    8.9566456154e-03    1.1541659375e+05
    8.9747514576e-03    1.1529808594e+05
    8.9928600937e-03    1.1518066406e+05
    9.0109808370e-03    1.1506778906e+05
    9.0291155502e-03    1.1494832031e+05
    9.0472688898e-03    1.1482960156e+05
    9.0654399246e-03    1.1470131250e+05
    9.0836230665e-03    1.1457980469e+05
    9.1018192470e-03    1.1445843750e+05
    9.1200266033e-03    1.1433756250e+05
    9.1382460669e-03    1.1421891406e+05
    9.1564757749e-03    1.1410047656e+05
    9.1747231781e-03    1.1398285156e+05
    9.1929892078e-03    1.1386375781e+05
    9.2112747952e-03    1.1374197656e+05
    9.2295790091e-03    1.1361821094e+05
    9.2479009181e-03    1.1349343750e+05
    9.2662386596e-03    1.1336699219e+05
    9.2845931649e-03    1.1323493750e+05
    9.3029672280e-03    1.1309703906e+05
    9.3213599175e-03    1.1295867969e+05
    9.3397712335e-03    1.1281682031e+05
    9.3582011759e-03    1.1267960156e+05
    9.3766497448e-03    1.1254137500e+05
    9.3951150775e-03    1.1240957031e+05
    9.4135999680e-03    1.1227866406e+05
    9.4321016222e-03    1.1215362500e+05
    9.4506228343e-03    1.1204025781e+05
    9.4691645354e-03    1.1192458594e+05
    9.4877239317e-03    1.1182396875e+05
    9.5063010231e-03    1.1172822656e+05
    9.5248948783e-03    1.1165275781e+05
    9.5435054973e-03    1.1158403906e+05
    9.5621328801e-03    1.1152571875e+05
    9.5807760954e-03    1.1147296875e+05
    9.5994332805e-03    1.1141888281e+05
    9.6181081608e-03    1.1137033594e+05
    9.6367979422e-03    1.1132874219e+05
    9.6555035561e-03    1.1128383594e+05
    9.6742231399e-03    1.1124480469e+05
    9.6929576248e-03    1.1120563281e+05
    9.7117051482e-03    1.1116139844e+05
    9.7304685041e-03    1.1111031250e+05
    9.7492448986e-03    1.1105599219e+05
    9.7680361941e-03    1.1099786719e+05
    9.7868405282e-03    1.1094057031e+05
    9.8056588322e-03    1.1087760156e+05
    9.8244920373e-03    1.1081607031e+05
    9.8433364183e-03    1.1075377344e+05
    9.8621929064e-03    1.1069196875e+05
    9.8810633644e-03    1.1062680469e+05
    9.8999459296e-03    1.1056814844e+05
    9.9188406020e-03    1.1052184375e+05
    9.9377483130e-03    1.1047460156e+05
    9.9566690624e-03    1.1043588281e+05
    9.9756028503e-03    1.1040603906e+05
    9.9945487455e-03    1.1038172656e+05
    1.0013507679e-02    1.1036546875e+05
    1.0032479651e-02    1.1034871875e+05
    1.0051463731e-02    1.1033787500e+05
    1.0070459917e-02    1.1033000000e+05
    1.0089469142e-02    1.1032308594e+05
    1.0108492337e-02    1.1031816406e+05
    1.0127528571e-02    1.1031402344e+05
    1.0146577843e-02    1.1029927344e+05
    1.0165639222e-02    1.1028412500e+05
    1.0184712708e-02    1.1026478125e+05
    1.0203798302e-02    1.1023962500e+05
    1.0222896002e-02    1.1021610156e+05
    1.0242006741e-02    1.1018722656e+05
    1.0261129588e-02    1.1015105469e+05
    1.0280264542e-02    1.1011405469e+05
    1.0299413465e-02    1.1006596094e+05
    1.0318575427e-02    1.1001371094e+05
    1.0337748565e-02    1.0995566406e+05
    1.0356934741e-02    1.0989585156e+05
    1.0376133956e-02    1.0983125000e+05
    1.0395346209e-02    1.0975221094e+05
    1.0414571501e-02    1.0966535156e+05
    1.0433809832e-02    1.0956427344e+05
    1.0453061201e-02    1.0945583594e+05
    1.0472324677e-02    1.0934310156e+05
    1.0491601191e-02    1.0921102344e+05
    1.0510892607e-02    1.0908378906e+05
    1.0530196130e-02    1.0894564844e+05
    1.0549513623e-02    1.0880153125e+05
    1.0568842292e-02    1.0865702344e+05
    1.0588183999e-02    1.0850950781e+05
    1.0607538745e-02    1.0835393750e+05
    1.0626907460e-02    1.0821021094e+05
    1.0646289214e-02    1.0806860156e+05
    1.0665684007e-02    1.0793178906e+05
    1.0685092770e-02    1.0780378125e+05
    1.0704516433e-02    1.0768335156e+05
    1.0723951273e-02    1.0757699219e+05
    1.0743400082e-02    1.0747277344e+05
    1.0762862861e-02    1.0738758594e+05
    1.0782338679e-02    1.0730816406e+05
    1.0801829398e-02    1.0724197656e+05
    1.0821334086e-02    1.0719014844e+05
    1.0840852745e-02    1.0715408594e+05
    1.0860386305e-02    1.0711712500e+05
    1.0879932903e-02    1.0709657031e+05
    1.0899493471e-02    1.0708478906e+05
    1.0919069871e-02    1.0707611719e+05
    1.0938662104e-02    1.0706956250e+05
    1.0958270170e-02    1.0707589844e+05
    1.0977892205e-02    1.0708931250e+05
    1.0997531936e-02    1.0709664844e+05
    1.1017187499e-02    1.0711269531e+05
    1.1036860757e-02    1.0712444531e+05
    1.1056551710e-02    1.0713074219e+05
    1.1076259427e-02    1.0713891406e+05
    1.1095987633e-02    1.0713997656e+05
    1.1115733534e-02    1.0714346875e+05
    1.1135498993e-02    1.0713844531e+05
    1.1155283079e-02    1.0712310156e+05
    1.1175086722e-02    1.0710660156e+05
    1.1194912717e-02    1.0707703906e+05
    1.1214758269e-02    1.0704305469e+05
    1.1234625243e-02    1.0700458594e+05
    1.1254511774e-02    1.0695872656e+05
    1.1274418794e-02    1.0690471875e+05
    1.1294347234e-02    1.0685184375e+05
    1.1314296164e-02    1.0679214844e+05
    1.1334266514e-02    1.0672847656e+05
    1.1354257353e-02    1.0665957031e+05
    1.1374268681e-02    1.0658828906e+05
    1.1394302361e-02    1.0651396094e+05
    1.1414355598e-02    1.0644303906e+05
    1.1434430256e-02    1.0637490625e+05
    1.1454525404e-02    1.0631360156e+05
    1.1474640109e-02    1.0624721875e+05
    1.1494777165e-02    1.0618746094e+05
    1.1514934711e-02    1.0612324219e+05
    1.1535113677e-02    1.0606986719e+05
    1.1555313133e-02    1.0601834375e+05
    1.1575534008e-02    1.0596964844e+05
    1.1595774442e-02    1.0592112500e+05
    1.1616035365e-02    1.0587015625e+05
    1.1636316776e-02    1.0581153906e+05
    1.1656619608e-02    1.0575047656e+05
    1.1676942930e-02    1.0567430469e+05
    1.1697287671e-02    1.0558981250e+05
    1.1717652902e-02    1.0549939844e+05
    1.1738038622e-02    1.0540346094e+05
    1.1758443899e-02    1.0529153125e+05
    1.1778870597e-02    1.0517860156e+05
    1.1799318716e-02    1.0506008594e+05
    1.1819788255e-02    1.0493977344e+05
    1.1840280145e-02    1.0482024219e+05
    1.1860790662e-02    1.0471764844e+05
    1.1881321669e-02    1.0461764844e+05
    1.1901874095e-02    1.0452713281e+05
    1.1922447011e-02    1.0444497656e+05
    1.1943042278e-02    1.0437642969e+05
    1.1963658035e-02    1.0431689844e+05
    1.1984295212e-02    1.0427441406e+05
    1.2004952878e-02    1.0424252344e+05
    1.2025631964e-02    1.0421566406e+05
    1.2046331540e-02    1.0418658594e+05
    1.2067052536e-02    1.0416646094e+05
    1.2087795883e-02    1.0414053906e+05
    1.2108558789e-02    1.0411310156e+05
    1.2129344046e-02    1.0408257031e+05
    1.2150149792e-02    1.0405822656e+05
    1.2170976959e-02    1.0402699219e+05
    1.2191825546e-02    1.0400308594e+05
    1.2212695554e-02    1.0398378906e+05
    1.2233586982e-02    1.0395352344e+05
    1.2254500762e-02    1.0393535156e+05
    1.2275436893e-02    1.0391328125e+05
    1.2296394445e-02    1.0389724219e+05
    1.2317374349e-02    1.0388053906e+05
    1.2338375673e-02    1.0386450781e+05
    1.2359398417e-02    1.0385000781e+05
    1.2380442582e-02    1.0383278906e+05
    1.2401508167e-02    1.0381260156e+05
    1.2422595173e-02    1.0378696094e+05
    1.2443703599e-02    1.0376122656e+05
    1.2464834377e-02    1.0373065625e+05
    1.2485986575e-02    1.0370428906e+05
    1.2507158332e-02    1.0367686719e+05
    1.2528351508e-02    1.0365439844e+05
    1.2549565174e-02    1.0362859375e+05
    1.2570801191e-02    1.0360253906e+05
    1.2592058629e-02    1.0357071094e+05
    1.2613337487e-02    1.0354530469e+05
    1.2634636834e-02    1.0350753125e+05
    1.2655957602e-02    1.0347341406e+05
    1.2677297927e-02    1.0343347656e+05
    1.2698660605e-02    1.0339616406e+05
    1.2720043771e-02    1.0335528906e+05
    1.2741449289e-02    1.0330633594e+05
    1.2762876227e-02    1.0326300781e+05
    1.2784325518e-02    1.0321964844e+05
    1.2805794366e-02    1.0317522656e+05
    1.2827285565e-02    1.0313109375e+05
    1.2848797254e-02    1.0309377344e+05
    1.2870330364e-02    1.0305713281e+05
    1.2891885825e-02    1.0303927344e+05
    1.2913462706e-02    1.0302884375e+05
    1.2935061008e-02    1.0304108594e+05
    1.2956679799e-02    1.0308186719e+05
    1.2978320010e-02    1.0317312500e+05
    1.2999981642e-02    1.0332940625e+05
    1.3021663763e-02    1.0357262500e+05
    1.3043368235e-02    1.0392078906e+05
    1.3065092266e-02    1.0437928906e+05
    1.3086837716e-02    1.0497933594e+05
    1.3108605519e-02    1.0571741406e+05
    1.3130392879e-02    1.0659207031e+05
    1.3152201660e-02    1.0757409375e+05
    1.3174032792e-02    1.0861735156e+05
    1.3195885345e-02    1.0965207031e+05
    1.3217759319e-02    1.1060980469e+05
    1.3239653781e-02    1.1140489844e+05
    1.3261569664e-02    1.1198627344e+05
    1.3283506967e-02    1.1231246094e+05
    1.3305463828e-02    1.1238510156e+05
    1.3327440247e-02    1.1220837500e+05
    1.3349435292e-02    1.1180921094e+05
    1.3371448033e-02    1.1124457031e+05
    1.3393475674e-02    1.1056477344e+05
    1.3415516354e-02    1.0982653906e+05
    1.3437564485e-02    1.0908787500e+05
    1.3459613547e-02    1.0840939844e+05
    1.3481658883e-02    1.0781802344e+05
    1.3503690250e-02    1.0733816406e+05
    1.3525702059e-02    1.0696125000e+05
    1.3547683135e-02    1.0667557031e+05
    1.3569628820e-02    1.0643067969e+05
    1.3591531664e-02    1.0619072656e+05
    1.3613392599e-02    1.0592419531e+05
    1.3635210693e-02    1.0560703906e+05
    1.3656994328e-02    1.0522705469e+05
    1.3678749092e-02    1.0479494531e+05
    1.3700488023e-02    1.0431139844e+05
    1.3722228818e-02    1.0380810156e+05
    1.3743981719e-02    1.0329613281e+05
    1.3765762560e-02    1.0281778906e+05
    1.3787578791e-02    1.0238022656e+05
    1.3809437864e-02    1.0200227344e+05
    1.3831341639e-02    1.0169633594e+05
    1.3853288256e-02    1.0145887500e+05
    1.3875273056e-02    1.0129311719e+05
    1.3897285797e-02    1.0118224219e+05
    1.3919321820e-02    1.0112460156e+05
    1.3941374607e-02    1.0110288281e+05
    1.3963440433e-02    1.0111037500e+05
    1.3985517435e-02    1.0112271094e+05
    1.4007603750e-02    1.0114472656e+05
    1.4029704034e-02    1.0116030469e+05
    1.4051820152e-02    1.0117635156e+05
    1.4073957689e-02    1.0118538281e+05
    1.4096121304e-02    1.0119060156e+05
    1.4118315652e-02    1.0118650000e+05
    1.4140545391e-02    1.0117655469e+05
    1.4162814245e-02    1.0115631250e+05
    1.4185124077e-02    1.0113439844e+05
    1.4207473956e-02    1.0110393750e+05
    1.4229862019e-02    1.0107440625e+05
    1.4252286404e-02    1.0104050781e+05
    1.4274741523e-02    1.0100422656e+05
    1.4297228307e-02    1.0096096875e+05
    1.4319745824e-02    1.0091766406e+05
    1.4342290349e-02    1.0087150000e+05
    1.4364863746e-02    1.0082986719e+05
    1.4387467876e-02    1.0080040625e+05
    1.4410103671e-02    1.0078783594e+05
    1.4432771131e-02    1.0079188281e+05
    1.4455472119e-02    1.0080144531e+05
    1.4478209428e-02    1.0082385156e+05
    1.4500979334e-02    1.0085214844e+05
    1.4523783699e-02    1.0088596094e+05
    1.4546621591e-02    1.0091385156e+05
    1.4569494873e-02    1.0092856250e+05
    1.4592399821e-02    1.0094108594e+05
    1.4615339227e-02    1.0094071094e+05
    1.4638305642e-02    1.0094328906e+05
    1.4661304653e-02    1.0094927344e+05
    1.4684336260e-02    1.0096772656e+05
    1.4707398601e-02    1.0100357031e+05
    1.4730494469e-02    1.0105937500e+05
    1.4753622934e-02    1.0112814844e+05
    1.4776783995e-02    1.0120731250e+05
    1.4799979515e-02    1.0130271094e+05
    1.4823205769e-02    1.0139663281e+05
    1.4846466482e-02    1.0147963281e+05
    1.4869757928e-02    1.0155613281e+05
    1.4893081971e-02    1.0162802344e+05
    1.4916437678e-02    1.0169055469e+05
    1.4939822257e-02    1.0174059375e+05
    1.4963239431e-02    1.0178538281e+05
    1.4986685477e-02    1.0182271875e+05
    1.5010161325e-02    1.0186177344e+05
    1.5033668838e-02    1.0189942969e+05
    1.5057205223e-02    1.0193559375e+05
    1.5080772340e-02    1.0197146875e+05
    1.5104367398e-02    1.0200328906e+05
    1.5127992257e-02    1.0202003906e+05
    1.5151646920e-02    1.0203755469e+05
    1.5175330453e-02    1.0204458594e+05
    1.5199041925e-02    1.0204281250e+05
    1.5222782269e-02    1.0202941406e+05
    1.5246548690e-02    1.0200640625e+05
    1.5270343982e-02    1.0197783594e+05
    1.5294168144e-02    1.0193757031e+05
    1.5318016522e-02    1.0189108594e+05
    1.5341891907e-02    1.0184615625e+05
    1.5365792438e-02    1.0179486719e+05
    1.5389721841e-02    1.0174309375e+05
    1.5413676389e-02    1.0168328906e+05
    1.5437657945e-02    1.0162414844e+05
    1.5461664647e-02    1.0156046094e+05
    1.5485695563e-02    1.0150835156e+05
    1.5509752557e-02    1.0146077344e+05
    1.5533835627e-02    1.0140710156e+05
    1.5557944775e-02    1.0135928906e+05
    1.5582079068e-02    1.0131340625e+05
    1.5606240369e-02    1.0127136719e+05
    1.5630424023e-02    1.0124203906e+05
    1.5654634684e-02    1.0121883594e+05
    1.5678871423e-02    1.0120388281e+05
    1.5703132376e-02    1.0118835156e+05
    1.5727419406e-02    1.0117168750e+05
    1.5751728788e-02    1.0115442969e+05
    1.5776060522e-02    1.0113055469e+05
    1.5800418332e-02    1.0111294531e+05
    1.5824800357e-02    1.0110289844e+05
    1.5849204734e-02    1.0108418750e+05
    1.5873633325e-02    1.0106572656e+05
    1.5898084268e-02    1.0103700781e+05
    1.5922557563e-02    1.0101055469e+05
    1.5947058797e-02    1.0098547656e+05
    1.5971582383e-02    1.0095363281e+05
    1.5996130183e-02    1.0092533594e+05
    1.6020702198e-02    1.0089811719e+05
    1.6045298427e-02    1.0086710156e+05
    1.6069920734e-02    1.0083428906e+05
    1.6094569117e-02    1.0079313281e+05
    1.6119243577e-02    1.0075272656e+05
    1.6143942252e-02    1.0071225781e+05
    1.6168667004e-02    1.0067522656e+05
    1.6193419695e-02    1.0063349219e+05
    1.6218200326e-02    1.0059968750e+05
    1.6243007034e-02    1.0055432031e+05
    1.6267839819e-02    1.0052150781e+05
    1.6292702407e-02    1.0049021094e+05
    1.6317596659e-02    1.0046646875e+05
    1.6342513263e-02    1.0043761719e+05
    1.6367461532e-02    1.0040160156e+05
    1.6392435879e-02    1.0037193750e+05
    1.6417443752e-02    1.0035222656e+05
    1.6442479566e-02    1.0032872656e+05
    1.6467543319e-02    1.0030252344e+05
    1.6492636874e-02    1.0027553906e+05
    1.6517756507e-02    1.0025085156e+05
    1.6542907804e-02    1.0022765625e+05
    1.6568088904e-02    1.0020396094e+05
    1.6593271866e-02    1.0017962500e+05
    1.6618426889e-02    1.0015016406e+05
    1.6643559560e-02    1.0013593750e+05
    1.6668669879e-02    1.0011489844e+05
    1.6693757847e-02    1.0010311719e+05
    1.6718825325e-02    1.0009525000e+05
    1.6743874177e-02    1.0007878906e+05
    1.6768900678e-02    1.0007409375e+05
    1.6793908551e-02    1.0008141406e+05
    1.6818899661e-02    1.0008377344e+05
    1.6843874007e-02    1.0008066406e+05
    1.6868829727e-02    1.0007290625e+05
    1.6893770546e-02    1.0006390625e+05
    1.6918692738e-02    1.0006619531e+05
    1.6943598166e-02    1.0007350781e+05
    1.6968490556e-02    1.0008027344e+05
    1.6993366182e-02    1.0007896094e+05
    1.7018226907e-02    1.0007621094e+05
    1.7043072730e-02    1.0008112500e+05
    1.7067901790e-02    1.0008721094e+05
    1.7092714086e-02    1.0010143750e+05
    1.7117511481e-02    1.0011286719e+05
    1.7142292112e-02    1.0012927344e+05
    1.7167057842e-02    1.0014922656e+05
    1.7191808671e-02    1.0016132031e+05
    1.7216544598e-02    1.0017985156e+05
    1.7241263762e-02    1.0019297656e+05
    1.7265968025e-02    1.0020607031e+05
    1.7290659249e-02    1.0021121094e+05
    1.7315333709e-02    1.0021478906e+05
    1.7339993268e-02    1.0021453906e+05
    1.7364639789e-02    1.0021696094e+05
    1.7389267683e-02    1.0020571094e+05
    1.7413880676e-02    1.0019535156e+05
    1.7438478768e-02    1.0018128906e+05
    1.7463061959e-02    1.0017052344e+05
    1.7487626523e-02    1.0015753906e+05
    1.7512176186e-02    1.0013639844e+05
    1.7536709085e-02    1.0011477344e+05
    1.7561223358e-02    1.0009165625e+05
    1.7585720867e-02    1.0006962500e+05
    1.7610201612e-02    1.0004909375e+05
    1.7634663731e-02    1.0002691406e+05
    1.7659107223e-02    1.0001618750e+05
    1.7683532089e-02    1.0000722656e+05
    1.7707940191e-02    1.0000144531e+05
    1.7732329667e-02    1.0000149219e+05
    1.7756698653e-02    9.9998976562e+04
    1.7781050876e-02    1.0001647656e+05
    1.7805384472e-02    1.0004297656e+05
    1.7829699442e-02    1.0008619531e+05
    1.7853999510e-02    1.0014742969e+05
    1.7878280953e-02    1.0021637500e+05
    1.7902545631e-02    1.0029262500e+05
    1.7926793545e-02    1.0038066406e+05
    1.7951028422e-02    1.0047611719e+05
    1.7975246534e-02    1.0058077344e+05
    1.7999447882e-02    1.0068603125e+05
    1.8023636192e-02    1.0079216406e+05
    1.8047811463e-02    1.0089666406e+05
    1.8071975559e-02    1.0099836719e+05
    1.8096126616e-02    1.0109471094e+05
    1.8120266497e-02    1.0118585156e+05
    1.8144397065e-02    1.0126737500e+05
    1.8168520182e-02    1.0133825781e+05
    1.8192630261e-02    1.0140344531e+05
    1.8216732889e-02    1.0145664844e+05
    1.8240824342e-02    1.0150546875e+05
    1.8264908344e-02    1.0154992969e+05
    1.8288983032e-02    1.0158778125e+05
    1.8313048407e-02    1.0162016406e+05
    1.8337102607e-02    1.0165058594e+05
    1.8361147493e-02    1.0167344531e+05
    1.8385183066e-02    1.0169628906e+05
    1.8409207463e-02    1.0171603906e+05
    1.8433224410e-02    1.0174357031e+05
    1.8457230181e-02    1.0177167969e+05
    1.8481226638e-02    1.0179703906e+05
    1.8505210057e-02    1.0182291406e+05
    1.8529184163e-02    1.0184922656e+05
    1.8553148955e-02    1.0187722656e+05
    1.8577100709e-02    1.0190812500e+05
    1.8601041287e-02    1.0193278125e+05
    1.8624972552e-02    1.0196585156e+05
    1.8648892641e-02    1.0199935156e+05
    1.8672801554e-02    1.0202975000e+05
    1.8696699291e-02    1.0206178906e+05
    1.8720587716e-02    1.0209785156e+05
    1.8744463101e-02    1.0213949219e+05
    1.8768329173e-02    1.0218416406e+05
    1.8792184070e-02    1.0224028906e+05
    1.8816027790e-02    1.0229531250e+05
    1.8839860335e-02    1.0236162500e+05
    1.8863683566e-02    1.0243371094e+05
    1.8887493759e-02    1.0250780469e+05
    1.8911294639e-02    1.0259308594e+05
    1.8935086206e-02    1.0268196094e+05
    1.8958866596e-02    1.0277017969e+05
    1.8982635811e-02    1.0284527344e+05
    1.9006397575e-02    1.0291397656e+05
    1.9030146301e-02    1.0296957031e+05
    1.9053885713e-02    1.0300983594e+05
    1.9077615812e-02    1.0302156250e+05
    1.9101334736e-02    1.0301375781e+05
    1.9125042483e-02    1.0297303906e+05
    1.9148740917e-02    1.0290552344e+05
    1.9172428176e-02    1.0280677344e+05
    1.9196104258e-02    1.0267403906e+05
    1.9219771028e-02    1.0252171875e+05
    1.9243424758e-02    1.0234096875e+05
    1.9267069176e-02    1.0214339844e+05
    1.9290700555e-02    1.0193362500e+05
    1.9314322621e-02    1.0171633594e+05
    1.9337931648e-02    1.0150103125e+05
    1.9361529499e-02    1.0129680469e+05
    1.9385114312e-02    1.0110402344e+05
    1.9408687949e-02    1.0094178906e+05
    1.9432250410e-02    1.0080105469e+05
    1.9455801696e-02    1.0070063281e+05
    1.9479339942e-02    1.0063161719e+05
    1.9502865151e-02    1.0059711719e+05
    1.9526379183e-02    1.0059142969e+05
    1.9549878314e-02    1.0061503125e+05
    1.9573366269e-02    1.0065232031e+05
    1.9596841186e-02    1.0069521094e+05
    1.9620303065e-02    1.0075152344e+05
    1.9643751904e-02    1.0080506250e+05
    1.9667187706e-02    1.0085675000e+05
    1.9690606743e-02    1.0090992969e+05
    1.9714014605e-02    1.0096352344e+05
    1.9737409428e-02    1.0101685156e+05
    1.9760791212e-02    1.0106290625e+05
    1.9784159958e-02    1.0110672656e+05
    1.9807513803e-02    1.0115802344e+05
    1.9830854610e-02    1.0120496094e+05
    1.9854182377e-02    1.0125072656e+05
    1.9877497107e-02    1.0130057031e+05
    1.9900798798e-02    1.0134400000e+05
    1.9924087450e-02    1.0140300781e+05
    1.9947361201e-02    1.0146302344e+05
    1.9970623776e-02    1.0151678906e+05
    1.9993871450e-02    1.0157694531e+05
    2.0017107949e-02    1.0164043750e+05
    2.0040329546e-02    1.0170658594e+05
    2.0063538104e-02    1.0178471094e+05
    2.0086731762e-02    1.0186182031e+05
    2.0109914243e-02    1.0193996094e+05
    2.0133081824e-02    1.0201919531e+05
    2.0156236365e-02    1.0210127344e+05
    2.0179376006e-02    1.0218339844e+05
    2.0202504471e-02    1.0226278906e+05
    2.0225618035e-02    1.0233196094e+05
    2.0248720422e-02    1.0240385156e+05
    2.0271807909e-02    1.0247097656e+05
    2.0294882357e-02    1.0253002344e+05
    2.0317947492e-02    1.0257778906e+05
    2.0340997726e-02    1.0262522656e+05
    2.0364036784e-02    1.0265696875e+05
    2.0387060940e-02    1.0269253906e+05
    2.0410073921e-02    1.0272275000e+05
    2.0433073863e-02    1.0274958594e+05
    2.0456060767e-02    1.0276135156e+05
    2.0479036495e-02    1.0277990625e+05
    2.0501999184e-02    1.0278571094e+05
    2.0524948835e-02    1.0279733594e+05
    2.0547885448e-02    1.0279650781e+05
    2.0570809022e-02    1.0280290625e+05
    2.0593719557e-02    1.0279791406e+05
    2.0616617054e-02    1.0279178906e+05
    2.0639499649e-02    1.0278116406e+05
    2.0662369207e-02    1.0277171094e+05
    2.0685223863e-02    1.0275190625e+05
    2.0708063617e-02    1.0272971875e+05
    2.0730890334e-02    1.0270408594e+05
    2.0753700286e-02    1.0268016406e+05
    2.0776495337e-02    1.0265216406e+05
    2.0799275488e-02    1.0262728125e+05
    2.0822042599e-02    1.0259296094e+05
    2.0844791085e-02    1.0256410156e+05
    2.0867524669e-02    1.0253528906e+05
    2.0890241489e-02    1.0250083594e+05
    2.0912945271e-02    1.0246659375e+05
    2.0935632288e-02    1.0242810156e+05
    2.0958306268e-02    1.0239382031e+05
    2.0980965346e-02    1.0235905469e+05
    2.1003607661e-02    1.0231846094e+05
    2.1026238799e-02    1.0228410156e+05
    2.1048855036e-02    1.0225785156e+05
    2.1071458235e-02    1.0222831250e+05
    2.1094048396e-02    1.0220375000e+05
    2.1116625518e-02    1.0217602344e+05
    2.1139191464e-02    1.0215193750e+05
    2.1161744371e-02    1.0213059375e+05
    2.1184286103e-02    1.0210985156e+05
    2.1206818521e-02    1.0208863281e+05
    2.1229337901e-02    1.0207385156e+05
    2.1251846105e-02    1.0205428906e+05
    2.1274344996e-02    1.0204000000e+05
    2.1296832711e-02    1.0202771094e+05
    2.1319312975e-02    1.0201262500e+05
    2.1341778338e-02    1.0199660156e+05
    2.1364232525e-02    1.0197950000e+05
    2.1386675537e-02    1.0196122656e+05
    2.1409107372e-02    1.0193953906e+05
    2.1431528032e-02    1.0192977344e+05
    2.1453931928e-02    1.0191040625e+05
    2.1476324648e-02    1.0190563281e+05
    2.1498700604e-02    1.0189440625e+05
    2.1521063522e-02    1.0187877344e+05
    2.1543409675e-02    1.0186191406e+05
    2.1565740928e-02    1.0184743750e+05
    2.1588053554e-02    1.0183910156e+05
    2.1610351279e-02    1.0182721094e+05
    2.1632634103e-02    1.0182444531e+05
    2.1654898301e-02    1.0181872656e+05
    2.1677147597e-02    1.0181047656e+05
    2.1699378267e-02    1.0181141406e+05
    2.1721594036e-02    1.0181850000e+05
    2.1743793041e-02    1.0181555469e+05
    2.1765975282e-02    1.0182403125e+05
    2.1788140759e-02    1.0182917969e+05
    2.1810289472e-02    1.0182933594e+05
    2.1832419559e-02    1.0183833594e+05
    2.1854531020e-02    1.0184152344e+05
    2.1876627579e-02    1.0184192969e+05
    2.1898705512e-02    1.0184516406e+05
    2.1920768544e-02    1.0184542969e+05
    2.1942811087e-02    1.0185271094e+05
    2.1964838728e-02    1.0184630469e+05
    2.1986849606e-02    1.0183828906e+05
    2.2008845583e-02    1.0183194531e+05
    2.2030822933e-02    1.0181791406e+05
    2.2052785382e-02    1.0180613281e+05
    2.2074732929e-02    1.0178843750e+05
    2.2096665576e-02    1.0176657031e+05
    2.2118583322e-02    1.0174289844e+05
    2.2140489891e-02    1.0171500781e+05
    2.2162377834e-02    1.0168519531e+05
    2.2184254602e-02    1.0165250000e+05
    2.2206118330e-02    1.0162614844e+05
    2.2227969021e-02    1.0160125781e+05
    2.2249806672e-02    1.0158035156e+05
    2.2271629423e-02    1.0155550000e+05
    2.2293440998e-02    1.0153660156e+05
    2.2315241396e-02    1.0152037500e+05
    2.2337028757e-02    1.0150922656e+05
    2.2358803079e-02    1.0150025000e+05
    2.2380566224e-02    1.0149710156e+05
    2.2402318195e-02    1.0150494531e+05
    2.2424057126e-02    1.0150933594e+05
    2.2445784882e-02    1.0151839844e+05
    2.2467501462e-02    1.0152966406e+05
    2.2489206865e-02    1.0155439844e+05
    2.2510899231e-02    1.0155916406e+05
    2.2532582283e-02    1.0157344531e+05
    2.2554252297e-02    1.0159410156e+05
    2.2575911134e-02    1.0160232031e+05
    2.2597560659e-02    1.0161856250e+05
    2.2619199008e-02    1.0162891406e+05
    2.2640828043e-02    1.0163853906e+05
    2.2662445903e-02    1.0164396094e+05
    2.2684050724e-02    1.0164835156e+05
    2.2705646232e-02    1.0165753125e+05
    2.2727232426e-02    1.0166063281e+05
    2.2748809308e-02    1.0165740625e+05
    2.2770375013e-02    1.0165477344e+05
    2.2791929543e-02    1.0165477344e+05
    2.2813472897e-02    1.0164383594e+05
    2.2835006937e-02    1.0164372656e+05
    2.2856531665e-02    1.0164089844e+05
    2.2878047079e-02    1.0163758594e+05
    2.2899549454e-02    1.0163610156e+05
    2.2921044379e-02    1.0163065625e+05
    2.2942528129e-02    1.0162963281e+05
    2.2964000702e-02    1.0163088281e+05
    2.2985465825e-02    1.0163072656e+05
    2.3006917909e-02    1.0162671094e+05
    2.3028360680e-02    1.0162371875e+05
    2.3049792275e-02    1.0162887500e+05
    2.3071214557e-02    1.0162714844e+05
    2.3092625663e-02    1.0162769531e+05
    2.3114029318e-02    1.0162803125e+05
    2.3135419935e-02    1.0162128906e+05
    2.3156799376e-02    1.0161821094e+05
    2.3178169504e-02    1.0161610156e+05
    2.3199530318e-02    1.0161358594e+05
    2.3220879957e-02    1.0160591406e+05
    2.3242218420e-02    1.0159619531e+05
    2.3263547570e-02    1.0158353906e+05
    2.3284865543e-02    1.0157944531e+05
    2.3306174204e-02    1.0156827344e+05
    2.3327469826e-02    1.0155433594e+05
    2.3348756135e-02    1.0154672656e+05
    2.3370031267e-02    1.0153765625e+05
    2.3391297087e-02    1.0153064844e+05
    2.3412553594e-02    1.0152500000e+05
    2.3433798924e-02    1.0152081250e+05
    2.3455033079e-02    1.0151705469e+05
    2.3476256058e-02    1.0152390625e+05
    2.3497469723e-02    1.0151850781e+05
    2.3518672213e-02    1.0152047656e+05
    2.3539865389e-02    1.0151934375e+05
    2.3561049253e-02    1.0151885156e+05
    2.3582221940e-02    1.0152700781e+05
    2.3603385314e-02    1.0152891406e+05
    2.3624535650e-02    1.0153017969e+05
    2.3645676672e-02    1.0153517969e+05
    2.3666808382e-02    1.0154047656e+05
    2.3687927052e-02    1.0154247656e+05
    2.3709038273e-02    1.0153661719e+05
    2.3730138317e-02    1.0153842969e+05
    2.3751227185e-02    1.0153809375e+05
    2.3772306740e-02    1.0153649219e+05
    2.3793375120e-02    1.0153466406e+05
    2.3814432323e-02    1.0153359375e+05
    2.3835480213e-02    1.0152191406e+05
    2.3856516927e-02    1.0152015625e+05
    2.3877544329e-02    1.0151414844e+05
    2.3898560554e-02    1.0151503906e+05
    2.3919565603e-02    1.0150646875e+05
    2.3940561339e-02    1.0150591406e+05
    2.3961545900e-02    1.0150496094e+05
    2.3982519284e-02    1.0150139844e+05
    2.4003483355e-02    1.0149750000e+05
    2.4024436250e-02    1.0148988281e+05
    2.4045377970e-02    1.0148435156e+05
    2.4066310376e-02    1.0148000000e+05
    2.4087233469e-02    1.0147802344e+05
    2.4108145386e-02    1.0147712500e+05
    2.4129044265e-02    1.0146710156e+05
    2.4149935693e-02    1.0146478906e+05
    2.4170814082e-02    1.0146231250e+05
    2.4191683158e-02    1.0145852344e+05
    2.4212542921e-02    1.0145105469e+05
    2.4233391508e-02    1.0144128906e+05
    2.4254228920e-02    1.0143950000e+05
    2.4275057018e-02    1.0143796094e+05
    2.4295873940e-02    1.0144064844e+05
    2.4316681549e-02    1.0143909375e+05
    2.4337477982e-02    1.0143666406e+05
    2.4358265102e-02    1.0143428906e+05
    2.4379042909e-02    1.0143672656e+05
    2.4399809539e-02    1.0144057031e+05
    2.4420566857e-02    1.0143907031e+05
    2.4441312999e-02    1.0144828906e+05
    2.4462047964e-02    1.0144753125e+05
    2.4482775480e-02    1.0144705469e+05
    2.4503491819e-02    1.0144646875e+05
    2.4524198845e-02    1.0144708594e+05
    2.4544894695e-02    1.0144908594e+05
    2.4565581232e-02    1.0145553125e+05
    2.4586258456e-02    1.0147117969e+05
    2.4606924504e-02    1.0148341406e+05
    2.4627581239e-02    1.0149182031e+05
    2.4648228660e-02    1.0150102344e+05
    2.4668866768e-02    1.0150590625e+05
    2.4689495564e-02    1.0151902344e+05
    2.4710113183e-02    1.0152575000e+05
    2.4730721489e-02    1.0153871094e+05
    2.4751318619e-02    1.0154989844e+05
    2.4771906435e-02    1.0156382031e+05
    2.4792486802e-02    1.0157239844e+05
    2.4813055992e-02    1.0158486719e+05
    2.4833614007e-02    1.0159515625e+05
    2.4854162708e-02    1.0160699219e+05
    2.4874702096e-02    1.0161577344e+05
    2.4895232171e-02    1.0162696094e+05
    2.4915752932e-02    1.0163591406e+05
    2.4936262518e-02    1.0163947656e+05
    2.4956764653e-02    1.0164003125e+05
    2.4977253750e-02    1.0163458594e+05
    2.4997735396e-02    1.0162568750e+05
    2.5018205866e-02    1.0161991406e+05
    2.5038668886e-02    1.0160799219e+05
    2.5059120730e-02    1.0159114844e+05
    2.5079563260e-02    1.0157241406e+05
    2.5099996477e-02    1.0154925781e+05
    2.5120420381e-02    1.0152627344e+05
    2.5140833110e-02    1.0149903906e+05
    2.5161236525e-02    1.0146952344e+05
    2.5181630626e-02    1.0143066406e+05
    2.5202017277e-02    1.0139647656e+05
    2.5222390890e-02    1.0136622656e+05
    2.5242757052e-02    1.0133553906e+05
    2.5263112038e-02    1.0131091406e+05
    2.5283459574e-02    1.0128252344e+05
    2.5303795934e-02    1.0127014844e+05
    2.5324124843e-02    1.0125060156e+05
    2.5344440714e-02    1.0124618750e+05
    2.5364749134e-02    1.0125044531e+05
    2.5385048240e-02    1.0125716406e+05
    2.5405339897e-02    1.0127707031e+05
    2.5425618514e-02    1.0130493750e+05
    2.5445887819e-02    1.0133255469e+05
    2.5466147810e-02    1.0136133594e+05
    2.5486400351e-02    1.0138962500e+05
    2.5506639853e-02    1.0141475781e+05
    2.5526873767e-02    1.0144913281e+05
    2.5547094643e-02    1.0147528906e+05
    2.5567308068e-02    1.0150577344e+05
    2.5587510318e-02    1.0153466406e+05
    2.5607703254e-02    1.0156472656e+05
    2.5627886876e-02    1.0159000781e+05
    2.5648061186e-02    1.0161591406e+05
    2.5668226182e-02    1.0163300781e+05
    2.5688380003e-02    1.0165027344e+05
    2.5708526373e-02    1.0166778906e+05
    2.5728661567e-02    1.0168981250e+05
    2.5748789310e-02    1.0170285156e+05
    2.5768904015e-02    1.0172010156e+05
    2.5789011270e-02    1.0173837500e+05
    2.5809109211e-02    1.0175071094e+05
    2.5829195976e-02    1.0176253906e+05
    2.5849273428e-02    1.0177903906e+05
    2.5869343430e-02    1.0180135156e+05
    2.5889402255e-02    1.0181535156e+05
    2.5909451768e-02    1.0182713281e+05
    2.5929493830e-02    1.0184325000e+05
    2.5949522853e-02    1.0186149219e+05
    2.5969544426e-02    1.0186660156e+05
    2.5989556685e-02    1.0188014844e+05
    2.6009559631e-02    1.0189434375e+05
    2.6029553264e-02    1.0189880469e+05
    2.6049537584e-02    1.0191060156e+05
    2.6069512591e-02    1.0191596875e+05
    2.6089478284e-02    1.0192128906e+05
    2.6109432802e-02    1.0191777344e+05
    2.6129379869e-02    1.0191753906e+05
    2.6149315760e-02    1.0191628125e+05
    2.6169244200e-02    1.0191278906e+05
    2.6189163327e-02    1.0190589844e+05
    2.6209073141e-02    1.0190231250e+05
    2.6228975505e-02    1.0189760156e+05
    2.6248866692e-02    1.0189058594e+05
    2.6268748567e-02    1.0188022656e+05
    2.6288621128e-02    1.0187125781e+05
    2.6308484375e-02    1.0186589844e+05
    2.6328338310e-02    1.0186136719e+05
    2.6348184794e-02    1.0185033594e+05
    2.6368021965e-02    1.0184682031e+05
    2.6387847960e-02    1.0183450781e+05
    2.6407664642e-02    1.0181917969e+05
    2.6427472010e-02    1.0181477344e+05
    2.6447271928e-02    1.0181017969e+05
    2.6467062533e-02    1.0180652344e+05
    2.6486843824e-02    1.0179230469e+05
    2.6506617665e-02    1.0178597656e+05
    2.6526380330e-02    1.0178089844e+05
    2.6546133682e-02    1.0177578906e+05
    2.6565877721e-02    1.0177053906e+05
    2.6585612446e-02    1.0176408594e+05
    2.6605339721e-02    1.0176087500e+05
    2.6625057682e-02    1.0175396094e+05
    2.6644766331e-02    1.0174572656e+05
    2.6664465666e-02    1.0174453906e+05
    2.6684155688e-02    1.0173889844e+05
    2.6703836396e-02    1.0173152344e+05
    2.6723509654e-02    1.0172908594e+05
    2.6743173599e-02    1.0173278906e+05
    2.6762828231e-02    1.0172999219e+05
    2.6782475412e-02    1.0172966406e+05
    2.6802113280e-02    1.0172741406e+05
    2.6821739972e-02    1.0173359375e+05
    2.6841359213e-02    1.0173346875e+05
    2.6860967278e-02    1.0173603906e+05
    2.6880569756e-02    1.0173933594e+05
    2.6900164783e-02    1.0173813281e+05
    2.6919748634e-02    1.0173822656e+05
    2.6939325035e-02    1.0173628906e+05
    2.6958892122e-02    1.0174728906e+05
    2.6978449896e-02    1.0174731250e+05
    2.6997998357e-02    1.0175903906e+05
    2.7017539367e-02    1.0175971094e+05
    2.7037071064e-02    1.0175836719e+05
    2.7056595311e-02    1.0176435156e+05
    2.7076110244e-02    1.0177057031e+05
    2.7095617726e-02    1.0177361719e+05
    2.7115115896e-02    1.0177453906e+05
    2.7134604752e-02    1.0177546875e+05
    2.7154086158e-02    1.0177880469e+05
    2.7173558250e-02    1.0178456250e+05
    2.7193021029e-02    1.0178452344e+05
    2.7212476358e-02    1.0178771094e+05
    2.7231922373e-02    1.0178961719e+05
    2.7251357213e-02    1.0178683594e+05
    2.7270786464e-02    1.0178344531e+05
    2.7290204540e-02    1.0178212500e+05
    2.7309613302e-02    1.0178053906e+05
    2.7329014614e-02    1.0178008594e+05
    2.7348404750e-02    1.0177828906e+05
    2.7367785573e-02    1.0177969531e+05
    2.7387158945e-02    1.0177752344e+05
    2.7406521142e-02    1.0177165625e+05
    2.7425874025e-02    1.0177030469e+05
    2.7445219457e-02    1.0176988281e+05
    2.7464553714e-02    1.0177146094e+05
    2.7483878657e-02    1.0176380469e+05
    2.7503194287e-02    1.0176264844e+05
    2.7522502467e-02    1.0175664844e+05
    2.7541799471e-02    1.0175519531e+05
    2.7561087161e-02    1.0175599219e+05
    2.7580365539e-02    1.0175457031e+05
    2.7599634603e-02    1.0175322656e+05
    2.7618894354e-02    1.0175099219e+05
    2.7638144791e-02    1.0175825000e+05
    2.7657385916e-02    1.0176200000e+05
    2.7676619589e-02    1.0175210156e+05
    2.7695843950e-02    1.0175011719e+05
    2.7715058997e-02    1.0174807031e+05
    2.7734262869e-02    1.0174728906e+05
    2.7753459290e-02    1.0175810156e+05
    2.7772648260e-02    1.0175296094e+05
    2.7791827917e-02    1.0174628125e+05
    2.7810998261e-02    1.0174896094e+05
    2.7830159292e-02    1.0175333594e+05
    2.7849311009e-02    1.0175449219e+05
    2.7868455276e-02    1.0175708594e+05
    2.7887590230e-02    1.0176549219e+05
    2.7906717733e-02    1.0176364844e+05
    2.7925835922e-02    1.0176409375e+05
    2.7944946662e-02    1.0176455469e+05
    2.7964048088e-02    1.0176505469e+05
    2.7983140200e-02    1.0176688281e+05
    2.8002224863e-02    1.0176666406e+05
    2.8021300212e-02    1.0177240625e+05
    2.8040368110e-02    1.0177758594e+05
    2.8059426695e-02    1.0178430469e+05
    2.8078475967e-02    1.0178678906e+05
    2.8097519651e-02    1.0179377344e+05
    2.8116554022e-02    1.0179302344e+05
    2.8135580942e-02    1.0179546875e+05
    2.8154598549e-02    1.0180237500e+05
    2.8173606843e-02    1.0180980469e+05
    2.8192607686e-02    1.0181269531e+05
    2.8211599216e-02    1.0181791406e+05
    2.8230583295e-02    1.0181157031e+05
    2.8249559924e-02    1.0181439844e+05
    2.8268527240e-02    1.0181950000e+05
    2.8287487105e-02    1.0182678906e+05
    2.8306435794e-02    1.0182712500e+05
    2.8325378895e-02    1.0182296875e+05
    2.8344312683e-02    1.0182800000e+05
    2.8363237157e-02    1.0184009375e+05
    2.8382156044e-02    1.0183852344e+05
    2.8401065618e-02    1.0183428125e+05
    2.8419965878e-02    1.0183696094e+05
    2.8438858688e-02    1.0184777344e+05
    2.8457742184e-02    1.0185397656e+05
    2.8476616368e-02    1.0185214844e+05
    2.8495483100e-02    1.0184646094e+05
    2.8514338657e-02    1.0185006250e+05
    2.8533160686e-02    1.0185716406e+05
    2.8551930562e-02    1.0186478906e+05
    2.8570635244e-02    1.0186560156e+05
    2.8589271009e-02    1.0186737500e+05
    2.8607837856e-02    1.0187741406e+05
    2.8626350686e-02    1.0188064844e+05
    2.8644818813e-02    1.0188499219e+05
    2.8663259000e-02    1.0188602344e+05
    2.8681686148e-02    1.0188913281e+05
    2.8700113297e-02    1.0189128125e+05
    2.8718546033e-02    1.0189806250e+05
    2.8736986220e-02    1.0190252344e+05
    2.8755431995e-02    1.0190475781e+05
    2.8773877770e-02    1.0190603906e+05
    2.8792314231e-02    1.0191414844e+05
    2.8810730204e-02    1.0191906250e+05
    2.8829116374e-02    1.0192160156e+05
    2.8847465292e-02    1.0192296094e+05
    2.8865773231e-02    1.0192746875e+05
    2.8884036466e-02    1.0192740625e+05
    2.8902258724e-02    1.0192588281e+05
    2.8920443729e-02    1.0192908594e+05
    2.8938598931e-02    1.0193224219e+05
    2.8956729919e-02    1.0193525000e+05
    2.8974846005e-02    1.0193808594e+05
    2.8992949054e-02    1.0194066406e+05
    2.9011042789e-02    1.0193485156e+05
    2.9029129073e-02    1.0193534375e+05
    2.9047204182e-02    1.0193440625e+05
    2.9065268114e-02    1.0193314844e+05
    2.9083315283e-02    1.0193303906e+05
    2.9101338238e-02    1.0193296875e+05
    2.9119335115e-02    1.0193647656e+05
    2.9137304053e-02    1.0193524219e+05
    2.9155241325e-02    1.0192908594e+05
    2.9173148796e-02    1.0192974219e+05
    2.9191024601e-02    1.0193027344e+05
    2.9208874330e-02    1.0192937500e+05
    2.9226697981e-02    1.0192832031e+05
    2.9244501144e-02    1.0192834375e+05
    2.9262285680e-02    1.0192836719e+05
    2.9280053452e-02    1.0192942969e+05
    2.9297806323e-02    1.0192565625e+05
    2.9315544292e-02    1.0191985156e+05
    2.9333265498e-02    1.0192085156e+05
    2.9350971803e-02    1.0192860156e+05
    2.9368655756e-02    1.0191797656e+05
    2.9386319220e-02    1.0192442969e+05
    2.9403960332e-02    1.0192885156e+05
    2.9421577230e-02    1.0192642969e+05
    2.9439168051e-02    1.0192630469e+05
    2.9456734657e-02    1.0192725781e+05
    2.9474277049e-02    1.0192590625e+05
    2.9491795227e-02    1.0192582031e+05
    2.9509292915e-02    1.0192581250e+05
    2.9526771978e-02    1.0192607031e+05
    2.9544232413e-02    1.0192880469e+05
    2.9561674222e-02    1.0192930469e+05
    2.9579099268e-02    1.0193469531e+05
    2.9596509412e-02    1.0193893750e+05
    2.9613900930e-02    1.0193637500e+05
    2.9631273821e-02    1.0193485156e+05
    2.9648626223e-02    1.0193557031e+05
    2.9665958136e-02    1.0193399219e+05
    2.9683271423e-02    1.0193467969e+05
    2.9700560495e-02    1.0194116406e+05
    2.9717829078e-02    1.0194197656e+05
    2.9735075310e-02    1.0194616406e+05
    2.9752301052e-02    1.0194115625e+05
    2.9769508168e-02    1.0193828125e+05
    2.9786696658e-02    1.0193639844e+05
    2.9803866521e-02    1.0193796875e+05
    2.9821017757e-02    1.0193733594e+05
    2.9838152230e-02    1.0194147656e+05
    2.9855269939e-02    1.0194544531e+05
    2.9872370884e-02    1.0194839844e+05
    2.9889453202e-02    1.0193983594e+05
    2.9906518757e-02    1.0194041406e+05
    2.9923565686e-02    1.0194102344e+05
    2.9940593988e-02    1.0194403906e+05
    2.9957601801e-02    1.0194468750e+05
    2.9974590987e-02    1.0194517969e+05
    2.9991561547e-02    1.0194566406e+05
    3.0008511618e-02    1.0194153125e+05
    3.0025444925e-02    1.0194437500e+05
    3.0042361468e-02    1.0194497656e+05
    3.0059259385e-02    1.0194550000e+05
    3.0076142401e-02    1.0194596094e+05
    3.0093006790e-02    1.0194402344e+05
    3.0109854415e-02    1.0194424219e+05
    3.0126683414e-02    1.0194552344e+05
    3.0143497512e-02    1.0194446875e+05
    3.0160292983e-02    1.0194553906e+05
    3.0177071691e-02    1.0194541406e+05
    3.0193833634e-02    1.0194410156e+05
    3.0210576952e-02    1.0194502344e+05
    3.0227303505e-02    1.0194362500e+05
    3.0244011432e-02    1.0194334375e+05
    3.0260702595e-02    1.0194197656e+05
    3.0277376994e-02    1.0194303906e+05
    3.0294034630e-02    1.0194310156e+05
    3.0310675502e-02    1.0194336719e+05
    3.0327299610e-02    1.0194380469e+05
    3.0343905091e-02    1.0195117969e+05
    3.0360495672e-02    1.0195440625e+05
    3.0377071351e-02    1.0195756250e+05
    3.0393628404e-02    1.0195839844e+05
    3.0410168692e-02    1.0195687500e+05
    3.0426690355e-02    1.0194838281e+05
    3.0443195254e-02    1.0196072656e+05
    3.0459685251e-02    1.0196181250e+05
    3.0476156622e-02    1.0196299219e+05
    3.0492611229e-02    1.0196430469e+05
    3.0509050936e-02    1.0196571094e+05
    3.0525473878e-02    1.0196846094e+05
    3.0541881919e-02    1.0197139844e+05
    3.0558273196e-02    1.0197456250e+05
    3.0574647710e-02    1.0198718750e+05
    3.0591005459e-02    1.0198733594e+05
    3.0607348308e-02    1.0198968750e+05
    3.0623674393e-02    1.0199091406e+05
    3.0639985576e-02    1.0198727344e+05
    3.0656279996e-02    1.0198939844e+05
    3.0672557652e-02    1.0199388281e+05
    3.0688818544e-02    1.0199817969e+05
    3.0705062672e-02    1.0199358594e+05
    3.0721291900e-02    1.0199796875e+05
    3.0737506226e-02    1.0200014844e+05
    3.0753703788e-02    1.0200240625e+05
    3.0769886449e-02    1.0200468750e+05
    3.0786054209e-02    1.0200902344e+05
    3.0802207068e-02    1.0200602344e+05
    3.0818343163e-02    1.0200050000e+05
    3.0834466219e-02    1.0200364844e+05
    3.0850572512e-02    1.0199952344e+05
    3.0866663903e-02    1.0199553125e+05
    3.0882738531e-02    1.0199609375e+05
    3.0898798257e-02    1.0200140625e+05
    3.0914843082e-02    1.0200313281e+05
    3.0930871144e-02    1.0199677344e+05
    3.0946886167e-02    1.0199467969e+05
    3.0962884426e-02    1.0199196875e+05
    3.0978867784e-02    1.0198513281e+05
    3.0994836241e-02    1.0197403906e+05
    3.1010789797e-02    1.0196227344e+05
    3.1026728451e-02    1.0195930469e+05
    3.1042650342e-02    1.0195635156e+05
    3.1058559194e-02    1.0196278125e+05
    3.1074455008e-02    1.0195928125e+05
    3.1090334058e-02    1.0195589844e+05
    3.1106200069e-02    1.0195353906e+05
    3.1122051179e-02    1.0195093750e+05
    3.1137887388e-02    1.0193866406e+05
    3.1153710559e-02    1.0193519531e+05
    3.1169516966e-02    1.0193052344e+05
    3.1185310334e-02    1.0192928906e+05
    3.1201090664e-02    1.0192510156e+05
    3.1216854230e-02    1.0193184375e+05
    3.1232602894e-02    1.0193483594e+05
    3.1248336658e-02    1.0194308594e+05
    3.1264055520e-02    1.0194496875e+05
    3.1279761344e-02    1.0194985156e+05
    3.1295452267e-02    1.0195710156e+05
    3.1311132014e-02    1.0195572656e+05
    3.1326796860e-02    1.0195697656e+05
    3.1342446804e-02    1.0196782031e+05
    3.1358085573e-02    1.0197232031e+05
    3.1373709440e-02    1.0198410156e+05
    3.1389318407e-02    1.0198961719e+05
    3.1404916197e-02    1.0199872656e+05
    3.1420499086e-02    1.0200125781e+05
    3.1436067075e-02    1.0200503906e+05
    3.1451620162e-02    1.0201011719e+05
    3.1467158347e-02    1.0201546094e+05
    3.1482685357e-02    1.0202677344e+05
    3.1498193741e-02    1.0203149219e+05
    3.1513694674e-02    1.0203650781e+05
    3.1529176980e-02    1.0204393750e+05
    3.1544648111e-02    1.0205619531e+05
    3.1560108066e-02    1.0205458594e+05
    3.1575553119e-02    1.0205972656e+05
    3.1590986997e-02    1.0206260156e+05
    3.1606405973e-02    1.0206771094e+05
    3.1621813774e-02    1.0207282031e+05
    3.1637206674e-02    1.0207783594e+05
    3.1652588397e-02    1.0208269531e+05
    3.1667951494e-02    1.0208839844e+05
    3.1683307141e-02    1.0208565625e+05
    3.1698647887e-02    1.0208708594e+05
    3.1713977456e-02    1.0208671094e+05
    3.1729292125e-02    1.0208489844e+05
    3.1744595617e-02    1.0208496094e+05
    3.1759884208e-02    1.0208228906e+05
    3.1775161624e-02    1.0207966406e+05
    3.1790427864e-02    1.0208141406e+05
    3.1805675477e-02    1.0208321875e+05
    3.1820915639e-02    1.0208734375e+05
    3.1836140901e-02    1.0208911719e+05
    3.1851354986e-02    1.0208844531e+05
    3.1866557896e-02    1.0208614844e+05
    3.1881745905e-02    1.0208383594e+05
    3.1896922737e-02    1.0208452344e+05
    3.1912088394e-02    1.0208502344e+05
    3.1927239150e-02    1.0208547656e+05
    3.1942378730e-02    1.0208710156e+05
    3.1957507133e-02    1.0208871094e+05
    3.1972620636e-02    1.0208913281e+05
    3.1987726688e-02    1.0208952344e+05
    3.2002814114e-02    1.0208990625e+05
    3.2017890364e-02    1.0208546875e+05
    3.2032959163e-02    1.0208099219e+05
    3.2048013061e-02    1.0207883594e+05
    3.2063052058e-02    1.0208143750e+05
    3.2078083605e-02    1.0207930469e+05
    3.2093103975e-02    1.0208184375e+05
    3.2108109444e-02    1.0208202344e+05
    3.2123107463e-02    1.0208192969e+05
    3.2138090581e-02    1.0207333594e+05
    3.2153062522e-02    1.0207128906e+05
    3.2168023288e-02    1.0207003125e+05
    3.2182972878e-02    1.0205940625e+05
    3.2197911292e-02    1.0206258594e+05
    3.2212834805e-02    1.0206111719e+05
    3.2227750868e-02    1.0206425000e+05
    3.2242652029e-02    1.0206066406e+05
    3.2257542014e-02    1.0205919531e+05
    3.2272424549e-02    1.0205307031e+05
    3.2287292182e-02    1.0204652344e+05
    3.2302148640e-02    1.0204447656e+05
    3.2316997647e-02    1.0204008594e+05
    3.2331831753e-02    1.0204019531e+05
    3.2346658409e-02    1.0203578125e+05
    3.2361470163e-02    1.0203591406e+05
    3.2376270741e-02    1.0203378906e+05
    3.2391063869e-02    1.0203165625e+05
    3.2405842096e-02    1.0202938281e+05
    3.2420612872e-02    1.0202244531e+05
    3.2435368747e-02    1.0201969531e+05
    3.2450113446e-02    1.0201208594e+05
    3.2464850694e-02    1.0200663281e+05
    3.2479573041e-02    1.0200333594e+05
    3.2494287938e-02    1.0200108594e+05
    3.2508991659e-02    1.0199878906e+05
    3.2523684204e-02    1.0199321875e+05
    3.2538365573e-02    1.0199002344e+05
    3.2553035766e-02    1.0198696875e+05
    3.2567698509e-02    1.0198408594e+05
    3.2582346350e-02    1.0198496094e+05
    3.2596986741e-02    1.0199053125e+05
    3.2611619681e-02    1.0198821094e+05
    3.2626237720e-02    1.0198589844e+05
    3.2640848309e-02    1.0198358594e+05
    3.2655447721e-02    1.0198012500e+05
    3.2670035958e-02    1.0197787500e+05
    3.2684613019e-02    1.0197689844e+05
    3.2699178904e-02    1.0197602344e+05
    3.2713737339e-02    1.0197306250e+05
    3.2728284597e-02    1.0197591406e+05
    3.2742820680e-02    1.0197350000e+05
    3.2757349312e-02    1.0197610156e+05
    3.2771866769e-02    1.0197559375e+05
    3.2786373049e-02    1.0198687500e+05
    3.2800871879e-02    1.0198708594e+05
    3.2815355808e-02    1.0198744531e+05
    3.2829832286e-02    1.0198577344e+05
    3.2844301313e-02    1.0199321094e+05
    3.2858755440e-02    1.0199637500e+05
    3.2873202115e-02    1.0199728906e+05
    3.2887637615e-02    1.0199569531e+05
    3.2902065665e-02    1.0199649219e+05
    3.2916482538e-02    1.0200172656e+05
    3.2930891961e-02    1.0200133594e+05
    3.2945290208e-02    1.0200097656e+05
    3.2959677279e-02    1.0200403906e+05
    3.2974056900e-02    1.0200489844e+05
    3.2988425344e-02    1.0200350781e+05
    3.3002786338e-02    1.0200450000e+05
    3.3017136157e-02    1.0200785156e+05
    3.3031478524e-02    1.0200910156e+05
    3.3045809716e-02    1.0201038281e+05
    3.3060129732e-02    1.0201175781e+05
    3.3074442297e-02    1.0201319531e+05
    3.3088747412e-02    1.0201472656e+05
    3.3103041351e-02    1.0201628906e+05
    3.3117324114e-02    1.0201787500e+05
    3.3131599426e-02    1.0201950781e+05
    3.3145863563e-02    1.0202338281e+05
    3.3160120249e-02    1.0202372656e+05
    3.3174365759e-02    1.0202622656e+05
    3.3188603818e-02    1.0202746875e+05
    3.3202830702e-02    1.0202739844e+05
    3.3217050135e-02    1.0202028906e+05
    3.3231258392e-02    1.0201991406e+05
    3.3245459199e-02    1.0202190625e+05
    3.3259648830e-02    1.0202510156e+05
    3.3273831010e-02    1.0202850781e+05
    3.3288005739e-02    1.0203431250e+05
    3.3302169293e-02    1.0203785156e+05
    3.3316325396e-02    1.0203671875e+05
    3.3330474049e-02    1.0202862500e+05
    3.3344611526e-02    1.0202953906e+05
    3.3358741552e-02    1.0203047656e+05
    3.3372864127e-02    1.0203369531e+05
    3.3386975527e-02    1.0203468750e+05
    3.3401079476e-02    1.0203343750e+05
    3.3415172249e-02    1.0203455469e+05
    3.3429257572e-02    1.0203800000e+05
    3.3443335444e-02    1.0204144531e+05
    3.3457405865e-02    1.0204262500e+05
    3.3471468836e-02    1.0204141406e+05
    3.3485524356e-02    1.0204002344e+05
    3.3499568701e-02    1.0204071094e+05
    3.3513605595e-02    1.0203897656e+05
    3.3527631313e-02    1.0204158594e+05
    3.3541653305e-02    1.0204158594e+05
    3.3555664122e-02    1.0203210156e+05
    3.3569667488e-02    1.0203021094e+05
    3.3583663404e-02    1.0203046875e+05
    3.3597648144e-02    1.0202846094e+05
    3.3611625433e-02    1.0202877344e+05
    3.3625595272e-02    1.0202803125e+05
    3.3639557660e-02    1.0202742969e+05
    3.3653512597e-02    1.0202684375e+05
    3.3667460084e-02    1.0202403906e+05
    3.3681396395e-02    1.0202352344e+05
    3.3695328981e-02    1.0202302344e+05
    3.3709254116e-02    1.0202246875e+05
    3.3723168075e-02    1.0202063281e+05
    3.3737078309e-02    1.0202089844e+05
    3.3750977367e-02    1.0201742969e+05
    3.3764872700e-02    1.0201265625e+05
    3.3778760582e-02    1.0200784375e+05
    3.3792637289e-02    1.0200628906e+05
    3.3806510270e-02    1.0200366406e+05
    3.3820372075e-02    1.0200568750e+05
    3.3834230155e-02    1.0200185156e+05
    3.3848077059e-02    1.0199803125e+05
    3.3861916512e-02    1.0199863281e+05
    3.3875752240e-02    1.0199690625e+05
    3.3889576793e-02    1.0199736719e+05
    3.3903393894e-02    1.0199316406e+05
    3.3917203546e-02    1.0198896094e+05
    3.3931009471e-02    1.0198931250e+05
    3.3944804221e-02    1.0198739844e+05
    3.3958595246e-02    1.0198661719e+05
    3.3972378820e-02    1.0198482031e+05
    3.3986151218e-02    1.0198199219e+05
    3.3999919891e-02    1.0198039844e+05
    3.4013681114e-02    1.0197878125e+05
    3.4027434886e-02    1.0197716406e+05
    3.4041177481e-02    1.0197669531e+05
    3.4054916352e-02    1.0197390625e+05
    3.4068647772e-02    1.0196983594e+05
    3.4082375467e-02    1.0196800000e+05
    3.4096091986e-02    1.0196838281e+05
    3.4109804779e-02    1.0196658594e+05
    3.4123510122e-02    1.0196474219e+05
    3.4137208015e-02    1.0196389844e+05
    3.4150898457e-02    1.0196071094e+05
    3.4164581448e-02    1.0195612500e+05
    3.4178260714e-02    1.0194709375e+05
    3.4191932529e-02    1.0194489844e+05
    3.4205596894e-02    1.0194856250e+05
    3.4219253808e-02    1.0194991406e+05
    3.4232903272e-02    1.0194800000e+05
    3.4246545285e-02    1.0194607031e+05
    3.4260183573e-02    1.0193496094e+05
    3.4273810685e-02    1.0193518750e+05
    3.4287434071e-02    1.0193096094e+05
    3.4301050007e-02    1.0193822656e+05
    3.4314658493e-02    1.0193412500e+05
    3.4328263253e-02    1.0192891406e+05
    3.4341860563e-02    1.0192346875e+05
    3.4355450422e-02    1.0192156250e+05
    3.4369036555e-02    1.0192080469e+05
    3.4382611513e-02    1.0192011719e+05
    3.4396182746e-02    1.0191608594e+05
    3.4409742802e-02    1.0191658594e+05
    3.4423299134e-02    1.0191703125e+05
    3.4436848015e-02    1.0191516406e+05
    3.4450393170e-02    1.0191887500e+05
    3.4463927150e-02    1.0190661719e+05
    3.4477461129e-02    1.0190457031e+05
    3.4490987659e-02    1.0191164844e+05
    3.4504506737e-02    1.0189916406e+05
    3.4518022090e-02    1.0189815625e+05
    3.4531529993e-02    1.0189596875e+05
    3.4545030445e-02    1.0189382031e+05
    3.4558523446e-02    1.0189166406e+05
    3.4572008997e-02    1.0188847656e+05
    3.4585487098e-02    1.0188767969e+05
    3.4598957747e-02    1.0188578906e+05
    3.4612424672e-02    1.0188396094e+05
    3.4625884145e-02    1.0188685156e+05
    3.4639336169e-02    1.0188053125e+05
    3.4652780741e-02    1.0187883594e+05
    3.4666225314e-02    1.0187947656e+05
    3.4679658711e-02    1.0188010156e+05
    3.4693088382e-02    1.0187636719e+05
    3.4706510603e-02    1.0187258594e+05
    3.4719929099e-02    1.0187332031e+05
    3.4733340144e-02    1.0188086719e+05
    3.4746743739e-02    1.0187360156e+05
    3.4760143608e-02    1.0186856250e+05
    3.4773536026e-02    1.0186686719e+05
    3.4786924720e-02    1.0186508594e+05
    3.4800305963e-02    1.0186333594e+05
    3.4813679755e-02    1.0186386719e+05
    3.4827046096e-02    1.0186460156e+05
    3.4840408713e-02    1.0186078125e+05
    3.4853763878e-02    1.0186135156e+05
    3.4867111593e-02    1.0185994531e+05
    3.4880455583e-02    1.0185382031e+05
    3.4893795848e-02    1.0185238281e+05
    3.4907124937e-02    1.0186018750e+05
    3.4920454025e-02    1.0185319531e+05
    3.4933775663e-02    1.0184874219e+05
    3.4947093576e-02    1.0185000000e+05
    3.4960404038e-02    1.0185818750e+05
    3.4973710775e-02    1.0185611719e+05
    3.4987010062e-02    1.0185171875e+05
endcurve
