Curveplot
LS-DYNA keyword deck by LS-PrePost                          
Time
Pressure
Defined Connection
Pressure @ 83 #pts=1745
* Minval=     9.9989664062e+04 at time=         0.0010049009
* Maxval=     1.6709175000e+05 at time=         0.0077016242
    0.0000000000e+00    9.9999093750e+04
    3.3812357287e-05    9.9999093750e+04
    6.1326652940e-05    9.9999250000e+04
    8.9102875791e-05    9.9996992188e+04
    1.1682785407e-04    9.9999210938e+04
    1.4461828687e-04    9.9999289062e+04
    1.7236733402e-04    9.9999601562e+04
    2.0016246708e-04    9.9997773438e+04
    2.2795486439e-04    1.0000512500e+05
    2.5574557367e-04    1.0000119531e+05
    2.8353667585e-04    1.0000153125e+05
    3.1133697485e-04    1.0000137500e+05
    3.3912662184e-04    9.9996492188e+04
    3.6691734567e-04    9.9997351562e+04
    3.9470891352e-04    1.0000092969e+05
    4.2249175021e-04    1.0000140625e+05
    4.5027161832e-04    1.0000160156e+05
    4.7804549104e-04    1.0000178906e+05
    5.0581363030e-04    9.9999726562e+04
    5.3357944125e-04    1.0000205469e+05
    5.6134146871e-04    1.0000196094e+05
    5.8909942163e-04    9.9997062500e+04
    6.1685312539e-04    1.0000027344e+05
    6.4460188150e-04    1.0000138281e+05
    6.7234638846e-04    1.0000103906e+05
    7.0008635521e-04    9.9998429688e+04
    7.2782178177e-04    9.9991460938e+04
    7.5555208605e-04    1.0000068750e+05
    7.8327720985e-04    1.0000584375e+05
    8.1099680392e-04    1.0000418750e+05
    8.3871174138e-04    1.0000196094e+05
    8.6642213864e-04    9.9994812500e+04
    8.9412782108e-04    9.9997085938e+04
    9.2182843946e-04    1.0000441406e+05
    9.4952445943e-04    1.0000702344e+05
    9.7721535712e-04    1.0000197656e+05
    1.0049008997e-03    9.9989664062e+04
    1.0325826006e-03    9.9995914062e+04
    1.0602590628e-03    1.0000071094e+05
    1.0879321489e-03    1.0000250781e+05
    1.1155996472e-03    1.0000203125e+05
    1.1432634201e-03    1.0000485156e+05
    1.1709230021e-03    9.9998023438e+04
    1.1985785095e-03    9.9995460938e+04
    1.2262313394e-03    1.0000230469e+05
    1.2538790470e-03    1.0000228906e+05
    1.2815232622e-03    1.0000010156e+05
    1.3091630535e-03    1.0000084375e+05
    1.3368004002e-03    1.0000269531e+05
    1.3644339051e-03    1.0000965625e+05
    1.3920635683e-03    1.0002675781e+05
    1.4196902048e-03    1.0005349219e+05
    1.4473132323e-03    1.0010715625e+05
    1.4749332331e-03    1.0019721094e+05
    1.5025498578e-03    1.0032744531e+05
    1.5301633393e-03    1.0051393750e+05
    1.5577742597e-03    1.0077205469e+05
    1.5853822697e-03    1.0109702344e+05
    1.6129877185e-03    1.0146783594e+05
    1.6405890929e-03    1.0186153906e+05
    1.6681876732e-03    1.0224788281e+05
    1.6957829939e-03    1.0260038281e+05
    1.7233766848e-03    1.0287310156e+05
    1.7509678146e-03    1.0305503125e+05
    1.7785291420e-03    1.0313858594e+05
    1.8060547300e-03    1.0313452344e+05
    1.8335470231e-03    1.0305430469e+05
    1.8610082334e-03    1.0291262500e+05
    1.8884401070e-03    1.0275153906e+05
    1.9158447394e-03    1.0257989844e+05
    1.9432241097e-03    1.0241550000e+05
    1.9705800805e-03    1.0229090625e+05
    1.9979148638e-03    1.0222268750e+05
    2.0252298564e-03    1.0219428906e+05
    2.0525271539e-03    1.0221735156e+05
    2.0798076876e-03    1.0227441406e+05
    2.1070730872e-03    1.0234697656e+05
    2.1343247499e-03    1.0241971094e+05
    2.1615643054e-03    1.0248021094e+05
    2.1887931507e-03    1.0251817969e+05
    2.2160108201e-03    1.0254093750e+05
    2.2432196420e-03    1.0254075781e+05
    2.2704207804e-03    1.0251742969e+05
    2.2976147011e-03    1.0248417969e+05
    2.3248014040e-03    1.0243917969e+05
    2.3519827519e-03    1.0240978125e+05
    2.3791582789e-03    1.0239242969e+05
    2.4063293822e-03    1.0239199219e+05
    2.4334960617e-03    1.0238875000e+05
    2.4606597144e-03    1.0239808594e+05
    2.4878205732e-03    1.0240946094e+05
    2.5149781723e-03    1.0242361719e+05
    2.5421329774e-03    1.0244052344e+05
    2.5692859199e-03    1.0245036719e+05
    2.5964374654e-03    1.0244653906e+05
    2.6235871483e-03    1.0244812500e+05
    2.6507352013e-03    1.0243408594e+05
    2.6778825559e-03    1.0242610156e+05
    2.7050296776e-03    1.0242503125e+05
    2.7321761008e-03    1.0242078125e+05
    2.7593218256e-03    1.0240821875e+05
    2.7864677832e-03    1.0241566406e+05
    2.8136142064e-03    1.0242027344e+05
    2.8407603968e-03    1.0243577344e+05
    2.8679079842e-03    1.0244940625e+05
    2.8950548731e-03    1.0246357031e+05
    2.9222022276e-03    1.0248778125e+05
    2.9493502807e-03    1.0252121094e+05
    2.9764990322e-03    1.0257217969e+05
    3.0036487151e-03    1.0263582031e+05
    3.0307997949e-03    1.0272378906e+05
    3.0579508748e-03    1.0281671094e+05
    3.0851035845e-03    1.0291578125e+05
    3.1122572254e-03    1.0302378125e+05
    3.1394117977e-03    1.0311846094e+05
    3.1665677670e-03    1.0320464844e+05
    3.1937246677e-03    1.0326109375e+05
    3.2208829653e-03    1.0330196875e+05
    3.2480424270e-03    1.0331289844e+05
    3.2752046827e-03    1.0329077344e+05
    3.2952371985e-03    1.0325330469e+05
    3.3145032357e-03    1.0321640625e+05
    3.3336398192e-03    1.0318003906e+05
    3.3528339118e-03    1.0314002344e+05
    3.3720366191e-03    1.0310371094e+05
    3.3912549261e-03    1.0306460156e+05
    3.4104890656e-03    1.0302539844e+05
    3.4297339153e-03    1.0298143750e+05
    3.4486323129e-03    1.0293289844e+05
    3.4671388566e-03    1.0288233594e+05
    3.4854323603e-03    1.0282996094e+05
    3.5036695190e-03    1.0276412500e+05
    3.5219141282e-03    1.0269658594e+05
    3.5401545465e-03    1.0262958594e+05
    3.5583588760e-03    1.0256592969e+05
    3.5765271168e-03    1.0249483594e+05
    3.5946895368e-03    1.0242866406e+05
    3.6139658187e-03    1.0237525000e+05
    3.6330535077e-03    1.0232591406e+05
    3.6521453876e-03    1.0228888281e+05
    3.6699753255e-03    1.0225821094e+05
    3.6875614896e-03    1.0223452344e+05
    3.7050142419e-03    1.0220832031e+05
    3.7224807311e-03    1.0219322656e+05
    3.7400643341e-03    1.0218028906e+05
    3.7577797193e-03    1.0216928906e+05
    3.7755726371e-03    1.0214878125e+05
    3.7933769636e-03    1.0214403906e+05
    3.8111612666e-03    1.0213694531e+05
    3.8289318327e-03    1.0213533594e+05
    3.8467168342e-03    1.0213086719e+05
    3.8645383902e-03    1.0212638281e+05
    3.8824023213e-03    1.0210878125e+05
    3.9002960548e-03    1.0210053125e+05
    3.9182156324e-03    1.0208292969e+05
    3.9361710660e-03    1.0206521094e+05
    3.9541716687e-03    1.0204758594e+05
    3.9733103476e-03    1.0203707031e+05
    3.9924201556e-03    1.0202230469e+05
    4.0104058571e-03    1.0200580469e+05
    4.0284004062e-03    1.0199217969e+05
    4.0464363992e-03    1.0198263281e+05
    4.0656095371e-03    1.0197149219e+05
    4.0847789496e-03    1.0196461719e+05
    4.1039343923e-03    1.0196088281e+05
    4.1219722480e-03    1.0195564844e+05
    4.1400394402e-03    1.0194875781e+05
    4.1591953486e-03    1.0194466406e+05
    4.1784178466e-03    1.0193368750e+05
    4.1976389475e-03    1.0192149219e+05
    4.2168586515e-03    1.0191169531e+05
    4.2360713705e-03    1.0190421875e+05
    4.2552771047e-03    1.0189910156e+05
    4.2744791135e-03    1.0188803906e+05
    4.2936825193e-03    1.0187659375e+05
    4.3128933758e-03    1.0186459375e+05
    4.3321144767e-03    1.0185160156e+05
    4.3513495475e-03    1.0183747656e+05
    4.3705995195e-03    1.0182196094e+05
    4.3898657896e-03    1.0180455469e+05
    4.4091497548e-03    1.0178467969e+05
    4.4284537435e-03    1.0175444531e+05
    4.4477786869e-03    1.0171972656e+05
    4.4671236537e-03    1.0166828906e+05
    4.4864914380e-03    1.0161891406e+05
    4.5058806427e-03    1.0155510156e+05
    4.5252908021e-03    1.0148996875e+05
    4.5447219163e-03    1.0141174219e+05
    4.5641721226e-03    1.0132125781e+05
    4.5836409554e-03    1.0121838281e+05
    4.6031279489e-03    1.0110356250e+05
    4.6226321720e-03    1.0098691406e+05
    4.6421540901e-03    1.0085653125e+05
    4.6616927721e-03    1.0073705469e+05
    4.6812482178e-03    1.0061156250e+05
    4.7008208930e-03    1.0049846875e+05
    4.7204112634e-03    1.0039691406e+05
    4.7400193289e-03    1.0030828125e+05
    4.7596455552e-03    1.0023460156e+05
    4.7792894766e-03    1.0018791406e+05
    4.7989510931e-03    1.0015807031e+05
    4.8186304048e-03    1.0014796094e+05
    4.8383255489e-03    1.0015421094e+05
    4.8580355942e-03    1.0018394531e+05
    4.8777610064e-03    1.0022703906e+05
    4.8975008540e-03    1.0028415625e+05
    4.9172551371e-03    1.0034312500e+05
    4.9370229244e-03    1.0040996094e+05
    4.9568060786e-03    1.0047562500e+05
    4.9766036682e-03    1.0052903906e+05
    4.9964170903e-03    1.0058156250e+05
    5.0162458792e-03    1.0062247656e+05
    5.0360900350e-03    1.0064591406e+05
    5.0559476949e-03    1.0066483594e+05
    5.0758207217e-03    1.0067427344e+05
    5.0957072526e-03    1.0067916406e+05
    5.1156077534e-03    1.0067565625e+05
    5.1355226897e-03    1.0066167969e+05
    5.1554525271e-03    1.0064712500e+05
    5.1753963344e-03    1.0062853125e+05
    5.1953555085e-03    1.0061577344e+05
    5.2153295837e-03    1.0059857031e+05
    5.2353194915e-03    1.0058471094e+05
    5.2553247660e-03    1.0057709375e+05
    5.2753463387e-03    1.0057375000e+05
    5.2953832783e-03    1.0057477344e+05
    5.3154369816e-03    1.0058018750e+05
    5.3355065174e-03    1.0058309375e+05
    5.3555918857e-03    1.0059433594e+05
    5.3756926209e-03    1.0060228906e+05
    5.3958082572e-03    1.0061324219e+05
    5.4159392603e-03    1.0062456250e+05
    5.4360851645e-03    1.0063585156e+05
    5.4562464356e-03    1.0064674219e+05
    5.4764230736e-03    1.0065360156e+05
    5.4966160096e-03    1.0066202344e+05
    5.5168238468e-03    1.0066962500e+05
    5.5370470509e-03    1.0067191406e+05
    5.5572865531e-03    1.0067461719e+05
    5.5775423534e-03    1.0067456250e+05
    5.5978130549e-03    1.0066941406e+05
    5.6181000546e-03    1.0067063281e+05
    5.6384028867e-03    1.0066960156e+05
    5.6587206200e-03    1.0067350000e+05
    5.6790532544e-03    1.0067546875e+05
    5.6994007900e-03    1.0067797656e+05
    5.7197632268e-03    1.0068218750e+05
    5.7401410304e-03    1.0068230469e+05
    5.7605337352e-03    1.0068837500e+05
    5.7809422724e-03    1.0069225000e+05
    5.8013652451e-03    1.0069621094e+05
    5.8218040504e-03    1.0070014844e+05
    5.8422577567e-03    1.0070421875e+05
    5.8627268299e-03    1.0071742969e+05
    5.8832112700e-03    1.0072153125e+05
    5.9037101455e-03    1.0072550781e+05
    5.9242248535e-03    1.0072250000e+05
    5.9447535314e-03    1.0072389844e+05
    5.9641525149e-03    1.0073457031e+05
    5.9830932878e-03    1.0073860156e+05
    6.0020405799e-03    1.0074284375e+05
    6.0210367665e-03    1.0074960156e+05
    6.0400799848e-03    1.0076355469e+05
    6.0591096990e-03    1.0076869531e+05
    6.0781282373e-03    1.0077402344e+05
    6.0972142965e-03    1.0077810156e+05
    6.1162756756e-03    1.0078674219e+05
    6.1353649944e-03    1.0078731250e+05
    6.1544459313e-03    1.0079234375e+05
    6.1734300107e-03    1.0080203906e+05
    6.1924448237e-03    1.0081314844e+05
    6.2115197070e-03    1.0082469531e+05
    6.2306127511e-03    1.0083560156e+05
    6.2497169711e-03    1.0085378906e+05
    6.2688281760e-03    1.0085869531e+05
    6.2879407778e-03    1.0086599219e+05
    6.3070552424e-03    1.0088272656e+05
    6.3261794858e-03    1.0089097656e+05
    6.3453060575e-03    1.0090902344e+05
    6.3644465990e-03    1.0092577344e+05
    6.3835908659e-03    1.0094797656e+05
    6.4027444459e-03    1.0096421875e+05
    6.4219115302e-03    1.0098115625e+05
    6.4410855994e-03    1.0100199219e+05
    6.4602680504e-03    1.0101625000e+05
    6.4794607460e-03    1.0102680469e+05
    6.4986641519e-03    1.0103485156e+05
    6.5178787336e-03    1.0104514844e+05
    6.5371058881e-03    1.0105752344e+05
    6.5563363023e-03    1.0106960156e+05
    6.5755699761e-03    1.0108103906e+05
    6.5948092379e-03    1.0108239844e+05
    6.6140629351e-03    1.0107313281e+05
    6.6333152354e-03    1.0107158594e+05
    6.6525745206e-03    1.0106885156e+05
    6.6718445159e-03    1.0106503906e+05
    6.6911154427e-03    1.0106281250e+05
    6.7104012705e-03    1.0106240625e+05
    6.7296870984e-03    1.0106843750e+05
    6.7489854991e-03    1.0106737500e+05
    6.7682852969e-03    1.0106378906e+05
    6.7875892855e-03    1.0106683594e+05
    6.8069072440e-03    1.0107189844e+05
    6.8262196146e-03    1.0107212500e+05
    6.8455408327e-03    1.0106733594e+05
    6.8648783490e-03    1.0106886719e+05
    6.8842126057e-03    1.0106069531e+05
    6.9035501219e-03    1.0105996875e+05
    6.9228983484e-03    1.0105432031e+05
    6.9422605447e-03    1.0105200000e+05
    6.9616222754e-03    1.0105903906e+05
    6.9809844717e-03    1.0106155469e+05
    7.0003494620e-03    1.0105708594e+05
    7.0197195746e-03    1.0105243750e+05
    7.0390999317e-03    1.0105102344e+05
    7.0584909990e-03    1.0105163281e+05
    7.0778946392e-03    1.0105091406e+05
    7.0973108523e-03    1.0104991406e+05
    7.1167377755e-03    1.0104914844e+05
    7.1361698210e-03    1.0104864844e+05
    7.1556069888e-03    1.0104835156e+05
    7.1750483476e-03    1.0104816406e+05
    7.1944966912e-03    1.0104800781e+05
    7.2139529511e-03    1.0105250000e+05
    7.2334166616e-03    1.0105742969e+05
    7.2528840974e-03    1.0105799219e+05
    7.2723543271e-03    1.0104940625e+05
    7.2918278165e-03    1.0105910156e+05
    7.3113050312e-03    1.0105997656e+05
    7.3307845742e-03    1.0106377344e+05
    7.3502692394e-03    1.0107771094e+05
    7.3697618209e-03    1.0109091406e+05
    7.3892641813e-03    1.0111325000e+05
    7.4087800458e-03    1.0115821875e+05
    7.4282912537e-03    1.0125053125e+05
    7.4477996677e-03    1.0143316406e+05
    7.4673094787e-03    1.0180605469e+05
    7.4868267402e-03    1.0252034375e+05
    7.5063589029e-03    1.0387594531e+05
    7.5258887373e-03    1.0631121094e+05
    7.5454111211e-03    1.1040296875e+05
    7.5649353676e-03    1.1665197656e+05
    7.5844703242e-03    1.2522978906e+05
    7.6040057465e-03    1.3555606250e+05
    7.6235276647e-03    1.4631829688e+05
    7.6430505142e-03    1.5576764062e+05
    7.6625877991e-03    1.6254381250e+05
    7.6821087860e-03    1.6619253125e+05
    7.7016241848e-03    1.6709175000e+05
    7.7211544849e-03    1.6616542188e+05
    7.7406810597e-03    1.6434081250e+05
    7.7602043748e-03    1.6241543750e+05
    7.7797495760e-03    1.6080340625e+05
    7.7992938459e-03    1.5955928125e+05
    7.8188432381e-03    1.5856790625e+05
    7.8384252265e-03    1.5757762500e+05
    7.8580006957e-03    1.5643215625e+05
    7.8775910661e-03    1.5501907812e+05
    7.8972103074e-03    1.5333695312e+05
    7.9168286175e-03    1.5145162500e+05
    7.9364804551e-03    1.4951071875e+05
    7.9561360180e-03    1.4758332812e+05
    7.9758102074e-03    1.4576762500e+05
    7.9955114052e-03    1.4408423438e+05
    8.0152126029e-03    1.4250851562e+05
    8.0349491909e-03    1.4103907812e+05
    8.0546662211e-03    1.3962237500e+05
    8.0743944272e-03    1.3826065625e+05
    8.0941170454e-03    1.3693612500e+05
    8.1138620153e-03    1.3564256250e+05
    8.1336386502e-03    1.3441109375e+05
    8.1534720957e-03    1.3323737500e+05
    8.1733558327e-03    1.3214414062e+05
    8.1932730973e-03    1.3112050000e+05
    8.2132071257e-03    1.3018750000e+05
    8.2330890000e-03    1.2933257031e+05
    8.2529615611e-03    1.2854803906e+05
    8.2727763802e-03    1.2781839844e+05
    8.2926023751e-03    1.2713783594e+05
    8.3124246448e-03    1.2649210156e+05
    8.3322748542e-03    1.2587519531e+05
    8.3521194756e-03    1.2528485156e+05
    8.3719678223e-03    1.2472628906e+05
    8.3917891607e-03    1.2418812500e+05
    8.4116021171e-03    1.2367485156e+05
    8.4314141423e-03    1.2319382031e+05
    8.4512168542e-03    1.2273371094e+05
    8.4710381925e-03    1.2228752344e+05
    8.4908353165e-03    1.2185164844e+05
    8.5106678307e-03    1.2142368750e+05
    8.5304882377e-03    1.2101675000e+05
    8.5503393784e-03    1.2062024219e+05
    8.5699046031e-03    1.2023400781e+05
    8.5892248899e-03    1.1987940625e+05
    8.6083402857e-03    1.1954450000e+05
    8.6272666231e-03    1.1922983594e+05
    8.6460309103e-03    1.1894624219e+05
    8.6646731943e-03    1.1867853125e+05
    8.6832325906e-03    1.1844131250e+05
    8.7017398328e-03    1.1821482031e+05
    8.7202098221e-03    1.1800721094e+05
    8.7386453524e-03    1.1780796094e+05
    8.7570473552e-03    1.1761310156e+05
    8.7753897533e-03    1.1743016406e+05
    8.7936492637e-03    1.1724950781e+05
    8.8118780404e-03    1.1708067969e+05
    8.8300397620e-03    1.1691608594e+05
    8.8481390849e-03    1.1675971094e+05
    8.8662039489e-03    1.1660656250e+05
    8.8842641562e-03    1.1645839844e+05
    8.9023411274e-03    1.1631535156e+05
    8.9204348624e-03    1.1617060156e+05
    8.9385388419e-03    1.1602668750e+05
    8.9566456154e-03    1.1589452344e+05
    8.9747514576e-03    1.1575021094e+05
    8.9928600937e-03    1.1561493750e+05
    9.0109808370e-03    1.1547689844e+05
    9.0291155502e-03    1.1533578906e+05
    9.0472688898e-03    1.1519675781e+05
    9.0654399246e-03    1.1505577344e+05
    9.0836230665e-03    1.1492008594e+05
    9.1018192470e-03    1.1478288281e+05
    9.1200266033e-03    1.1465009375e+05
    9.1382460669e-03    1.1452046875e+05
    9.1564757749e-03    1.1439555469e+05
    9.1747231781e-03    1.1428458594e+05
    9.1929892078e-03    1.1417716406e+05
    9.2112747952e-03    1.1406003906e+05
    9.2295790091e-03    1.1395253906e+05
    9.2479009181e-03    1.1384369531e+05
    9.2662386596e-03    1.1373453906e+05
    9.2845931649e-03    1.1362077344e+05
    9.3029672280e-03    1.1350575000e+05
    9.3213599175e-03    1.1338514844e+05
    9.3397712335e-03    1.1326758594e+05
    9.3582011759e-03    1.1314403906e+05
    9.3766497448e-03    1.1302347656e+05
    9.3951150775e-03    1.1289677344e+05
    9.4135999680e-03    1.1276418750e+05
    9.4321016222e-03    1.1263640625e+05
    9.4506228343e-03    1.1251177344e+05
    9.4691645354e-03    1.1239128906e+05
    9.4877239317e-03    1.1227046094e+05
    9.5063010231e-03    1.1215797656e+05
    9.5248948783e-03    1.1204496875e+05
    9.5435054973e-03    1.1194078125e+05
    9.5621328801e-03    1.1184962500e+05
    9.5807760954e-03    1.1176408594e+05
    9.5994332805e-03    1.1169761719e+05
    9.6181081608e-03    1.1163193750e+05
    9.6367979422e-03    1.1158037500e+05
    9.6555035561e-03    1.1154146094e+05
    9.6742231399e-03    1.1151132031e+05
    9.6929576248e-03    1.1149184375e+05
    9.7117051482e-03    1.1147858594e+05
    9.7304685041e-03    1.1146783594e+05
    9.7492448986e-03    1.1146084375e+05
    9.7680361941e-03    1.1145336719e+05
    9.7868405282e-03    1.1144435156e+05
    9.8056588322e-03    1.1142739844e+05
    9.8244920373e-03    1.1140321094e+05
    9.8433364183e-03    1.1137116406e+05
    9.8621929064e-03    1.1133065625e+05
    9.8810633644e-03    1.1128052344e+05
    9.8999459296e-03    1.1122616406e+05
    9.9188406020e-03    1.1116935156e+05
    9.9377483130e-03    1.1110718750e+05
    9.9566690624e-03    1.1104225781e+05
    9.9756028503e-03    1.1097527344e+05
    9.9945487455e-03    1.1090112500e+05
    1.0013507679e-02    1.1083172656e+05
    1.0032479651e-02    1.1076127344e+05
    1.0051463731e-02    1.1069725000e+05
    1.0070459917e-02    1.1062508594e+05
    1.0089469142e-02    1.1054493750e+05
    1.0108492337e-02    1.1045543750e+05
    1.0127528571e-02    1.1036485156e+05
    1.0146577843e-02    1.1026646094e+05
    1.0165639222e-02    1.1015494531e+05
    1.0184712708e-02    1.1004797656e+05
    1.0203798302e-02    1.0992555469e+05
    1.0222896002e-02    1.0980175781e+05
    1.0242006741e-02    1.0967255469e+05
    1.0261129588e-02    1.0954063281e+05
    1.0280264542e-02    1.0939953906e+05
    1.0299413465e-02    1.0925952344e+05
    1.0318575427e-02    1.0911884375e+05
    1.0337748565e-02    1.0898596094e+05
    1.0356934741e-02    1.0886478125e+05
    1.0376133956e-02    1.0875421875e+05
    1.0395346209e-02    1.0864980469e+05
    1.0414571501e-02    1.0855805469e+05
    1.0433809832e-02    1.0847916406e+05
    1.0453061201e-02    1.0841221875e+05
    1.0472324677e-02    1.0835756250e+05
    1.0491601191e-02    1.0831053906e+05
    1.0510892607e-02    1.0828644531e+05
    1.0530196130e-02    1.0826503906e+05
    1.0549513623e-02    1.0825830469e+05
    1.0568842292e-02    1.0825127344e+05
    1.0588183999e-02    1.0825269531e+05
    1.0607538745e-02    1.0825831250e+05
    1.0626907460e-02    1.0826605469e+05
    1.0646289214e-02    1.0827841406e+05
    1.0665684007e-02    1.0829803906e+05
    1.0685092770e-02    1.0831066406e+05
    1.0704516433e-02    1.0832096094e+05
    1.0723951273e-02    1.0832111719e+05
    1.0743400082e-02    1.0832618750e+05
    1.0762862861e-02    1.0832410156e+05
    1.0782338679e-02    1.0831806250e+05
    1.0801829398e-02    1.0831164844e+05
    1.0821334086e-02    1.0829897656e+05
    1.0840852745e-02    1.0828621875e+05
    1.0860386305e-02    1.0826257031e+05
    1.0879932903e-02    1.0823882031e+05
    1.0899493471e-02    1.0821196875e+05
    1.0919069871e-02    1.0817291406e+05
    1.0938662104e-02    1.0813317969e+05
    1.0958270170e-02    1.0809002344e+05
    1.0977892205e-02    1.0803788281e+05
    1.0997531936e-02    1.0798788281e+05
    1.1017187499e-02    1.0793124219e+05
    1.1036860757e-02    1.0787046094e+05
    1.1056551710e-02    1.0780903906e+05
    1.1076259427e-02    1.0774625781e+05
    1.1095987633e-02    1.0769227344e+05
    1.1115733534e-02    1.0763132031e+05
    1.1135498993e-02    1.0758139844e+05
    1.1155283079e-02    1.0752739844e+05
    1.1175086722e-02    1.0748258594e+05
    1.1194912717e-02    1.0744185156e+05
    1.1214758269e-02    1.0740358594e+05
    1.1234625243e-02    1.0736802344e+05
    1.1254511774e-02    1.0732088281e+05
    1.1274418794e-02    1.0728253906e+05
    1.1294347234e-02    1.0724103906e+05
    1.1314296164e-02    1.0719796094e+05
    1.1334266514e-02    1.0714364844e+05
    1.1354257353e-02    1.0709328125e+05
    1.1374268681e-02    1.0703516406e+05
    1.1394302361e-02    1.0696403906e+05
    1.1414355598e-02    1.0688303906e+05
    1.1434430256e-02    1.0680355469e+05
    1.1454525404e-02    1.0671256250e+05
    1.1474640109e-02    1.0662160156e+05
    1.1494777165e-02    1.0652258594e+05
    1.1514934711e-02    1.0642149219e+05
    1.1535113677e-02    1.0632077344e+05
    1.1555313133e-02    1.0622046875e+05
    1.1575534008e-02    1.0611308594e+05
    1.1595774442e-02    1.0601653125e+05
    1.1616035365e-02    1.0591678906e+05
    1.1636316776e-02    1.0582027344e+05
    1.1656619608e-02    1.0572858594e+05
    1.1676942930e-02    1.0563300000e+05
    1.1697287671e-02    1.0554125000e+05
    1.1717652902e-02    1.0544813281e+05
    1.1738038622e-02    1.0536052344e+05
    1.1758443899e-02    1.0526197656e+05
    1.1778870597e-02    1.0517161719e+05
    1.1799318716e-02    1.0508442969e+05
    1.1819788255e-02    1.0499118750e+05
    1.1840280145e-02    1.0490315625e+05
    1.1860790662e-02    1.0482130469e+05
    1.1881321669e-02    1.0473696094e+05
    1.1901874095e-02    1.0465360156e+05
    1.1922447011e-02    1.0458230469e+05
    1.1943042278e-02    1.0451915625e+05
    1.1963658035e-02    1.0446349219e+05
    1.1984295212e-02    1.0442322656e+05
    1.2004952878e-02    1.0439246094e+05
    1.2025631964e-02    1.0436660156e+05
    1.2046331540e-02    1.0435425000e+05
    1.2067052536e-02    1.0434599219e+05
    1.2087795883e-02    1.0434339844e+05
    1.2108558789e-02    1.0433846875e+05
    1.2129344046e-02    1.0432796875e+05
    1.2150149792e-02    1.0431540625e+05
    1.2170976959e-02    1.0430147656e+05
    1.2191825546e-02    1.0427317969e+05
    1.2212695554e-02    1.0424153906e+05
    1.2233586982e-02    1.0419950000e+05
    1.2254500762e-02    1.0416287500e+05
    1.2275436893e-02    1.0411884375e+05
    1.2296394445e-02    1.0407991406e+05
    1.2317374349e-02    1.0404097656e+05
    1.2338375673e-02    1.0400130469e+05
    1.2359398417e-02    1.0396521875e+05
    1.2380442582e-02    1.0392534375e+05
    1.2401508167e-02    1.0388916406e+05
    1.2422595173e-02    1.0385733594e+05
    1.2443703599e-02    1.0382646094e+05
    1.2464834377e-02    1.0379614844e+05
    1.2485986575e-02    1.0376850000e+05
    1.2507158332e-02    1.0374016406e+05
    1.2528351508e-02    1.0370513281e+05
    1.2549565174e-02    1.0368002344e+05
    1.2570801191e-02    1.0365414844e+05
    1.2592058629e-02    1.0362303125e+05
    1.2613337487e-02    1.0359697656e+05
    1.2634636834e-02    1.0356775781e+05
    1.2655957602e-02    1.0353735156e+05
    1.2677297927e-02    1.0350575781e+05
    1.2698660605e-02    1.0347272656e+05
    1.2720043771e-02    1.0343671094e+05
    1.2741449289e-02    1.0340608594e+05
    1.2762876227e-02    1.0336313281e+05
    1.2784325518e-02    1.0331641406e+05
    1.2805794366e-02    1.0326859375e+05
    1.2827285565e-02    1.0321894531e+05
    1.2848797254e-02    1.0316822656e+05
    1.2870330364e-02    1.0312225000e+05
    1.2891885825e-02    1.0307921875e+05
    1.2913462706e-02    1.0304008594e+05
    1.2935061008e-02    1.0300753906e+05
    1.2956679799e-02    1.0298003125e+05
    1.2978320010e-02    1.0297164844e+05
    1.2999981642e-02    1.0298652344e+05
    1.3021663763e-02    1.0302733594e+05
    1.3043368235e-02    1.0311663281e+05
    1.3065092266e-02    1.0326141406e+05
    1.3086837716e-02    1.0349284375e+05
    1.3108605519e-02    1.0381258594e+05
    1.3130392879e-02    1.0424962500e+05
    1.3152201660e-02    1.0482266406e+05
    1.3174032792e-02    1.0553655469e+05
    1.3195885345e-02    1.0638383594e+05
    1.3217759319e-02    1.0735114844e+05
    1.3239653781e-02    1.0838417969e+05
    1.3261569664e-02    1.0943053906e+05
    1.3283506967e-02    1.1041144531e+05
    1.3305463828e-02    1.1124960156e+05
    1.3327440247e-02    1.1188158594e+05
    1.3349435292e-02    1.1225739844e+05
    1.3371448033e-02    1.1237478906e+05
    1.3393475674e-02    1.1224227344e+05
    1.3415516354e-02    1.1188640625e+05
    1.3437564485e-02    1.1134949219e+05
    1.3459613547e-02    1.1069362500e+05
    1.3481658883e-02    1.0996233594e+05
    1.3503690250e-02    1.0922083594e+05
    1.3525702059e-02    1.0852222656e+05
    1.3547683135e-02    1.0790947656e+05
    1.3569628820e-02    1.0740739844e+05
    1.3591531664e-02    1.0701197656e+05
    1.3613392599e-02    1.0670086719e+05
    1.3635210693e-02    1.0645372656e+05
    1.3656994328e-02    1.0621880469e+05
    1.3678749092e-02    1.0596355469e+05
    1.3700488023e-02    1.0566371094e+05
    1.3722228818e-02    1.0530665625e+05
    1.3743981719e-02    1.0488496094e+05
    1.3765762560e-02    1.0441730469e+05
    1.3787578791e-02    1.0391485156e+05
    1.3809437864e-02    1.0340103906e+05
    1.3831341639e-02    1.0290197656e+05
    1.3853288256e-02    1.0244124219e+05
    1.3875273056e-02    1.0203441406e+05
    1.3897285797e-02    1.0170036719e+05
    1.3919321820e-02    1.0144036719e+05
    1.3941374607e-02    1.0125422656e+05
    1.3963440433e-02    1.0112889844e+05
    1.3985517435e-02    1.0106014844e+05
    1.4007603750e-02    1.0103085156e+05
    1.4029704034e-02    1.0102910156e+05
    1.4051820152e-02    1.0104305469e+05
    1.4073957689e-02    1.0107005469e+05
    1.4096121304e-02    1.0109063281e+05
    1.4118315652e-02    1.0111021094e+05
    1.4140545391e-02    1.0112608594e+05
    1.4162814245e-02    1.0113225781e+05
    1.4185124077e-02    1.0113403125e+05
    1.4207473956e-02    1.0112659375e+05
    1.4229862019e-02    1.0111077344e+05
    1.4252286404e-02    1.0109652344e+05
    1.4274741523e-02    1.0108808594e+05
    1.4297228307e-02    1.0108197656e+05
    1.4319745824e-02    1.0108514844e+05
    1.4342290349e-02    1.0108712500e+05
    1.4364863746e-02    1.0109942969e+05
    1.4387467876e-02    1.0110335156e+05
    1.4410103671e-02    1.0112047656e+05
    1.4432771131e-02    1.0113896094e+05
    1.4455472119e-02    1.0117196094e+05
    1.4478209428e-02    1.0121193750e+05
    1.4500979334e-02    1.0126133594e+05
    1.4523783699e-02    1.0132233594e+05
    1.4546621591e-02    1.0138764844e+05
    1.4569494873e-02    1.0144921875e+05
    1.4592399821e-02    1.0150053906e+05
    1.4615339227e-02    1.0152784375e+05
    1.4638305642e-02    1.0153802344e+05
    1.4661304653e-02    1.0152664844e+05
    1.4684336260e-02    1.0149657031e+05
    1.4707398601e-02    1.0144696094e+05
    1.4730494469e-02    1.0139260156e+05
    1.4753622934e-02    1.0133508594e+05
    1.4776783995e-02    1.0128846875e+05
    1.4799979515e-02    1.0125110156e+05
    1.4823205769e-02    1.0123371875e+05
    1.4846466482e-02    1.0123335156e+05
    1.4869757928e-02    1.0124068750e+05
    1.4893081971e-02    1.0125567969e+05
    1.4916437678e-02    1.0126234375e+05
    1.4939822257e-02    1.0128092969e+05
    1.4963239431e-02    1.0130239844e+05
    1.4986685477e-02    1.0131737500e+05
    1.5010161325e-02    1.0133696875e+05
    1.5033668838e-02    1.0134719531e+05
    1.5057205223e-02    1.0135621094e+05
    1.5080772340e-02    1.0136996094e+05
    1.5104367398e-02    1.0138575781e+05
    1.5127992257e-02    1.0141472656e+05
    1.5151646920e-02    1.0145178906e+05
    1.5175330453e-02    1.0149063281e+05
    1.5199041925e-02    1.0153596094e+05
    1.5222782269e-02    1.0158043750e+05
    1.5246548690e-02    1.0162028906e+05
    1.5270343982e-02    1.0166422656e+05
    1.5294168144e-02    1.0170477344e+05
    1.5318016522e-02    1.0175034375e+05
    1.5341891907e-02    1.0178743750e+05
    1.5365792438e-02    1.0182671094e+05
    1.5389721841e-02    1.0185932031e+05
    1.5413676389e-02    1.0188346094e+05
    1.5437657945e-02    1.0190478906e+05
    1.5461664647e-02    1.0191378125e+05
    1.5485695563e-02    1.0191766406e+05
    1.5509752557e-02    1.0191277344e+05
    1.5533835627e-02    1.0188914844e+05
    1.5557944775e-02    1.0185353906e+05
    1.5582079068e-02    1.0181433594e+05
    1.5606240369e-02    1.0177037500e+05
    1.5630424023e-02    1.0170666406e+05
    1.5654634684e-02    1.0165238281e+05
    1.5678871423e-02    1.0158928125e+05
    1.5703132376e-02    1.0152808594e+05
    1.5727419406e-02    1.0146421094e+05
    1.5751728788e-02    1.0140377344e+05
    1.5776060522e-02    1.0133891406e+05
    1.5800418332e-02    1.0128407031e+05
    1.5824800357e-02    1.0123025781e+05
    1.5849204734e-02    1.0117983594e+05
    1.5873633325e-02    1.0112410156e+05
    1.5898084268e-02    1.0107931250e+05
    1.5922557563e-02    1.0103643750e+05
    1.5947058797e-02    1.0099593750e+05
    1.5971582383e-02    1.0096413281e+05
    1.5996130183e-02    1.0092803906e+05
    1.6020702198e-02    1.0090391406e+05
    1.6045298427e-02    1.0088313281e+05
    1.6069920734e-02    1.0087008594e+05
    1.6094569117e-02    1.0085809375e+05
    1.6119243577e-02    1.0083771875e+05
    1.6143942252e-02    1.0082200000e+05
    1.6168667004e-02    1.0080402344e+05
    1.6193419695e-02    1.0078550781e+05
    1.6218200326e-02    1.0076416406e+05
    1.6243007034e-02    1.0074078906e+05
    1.6267839819e-02    1.0071639844e+05
    1.6292702407e-02    1.0069067969e+05
    1.6317596659e-02    1.0065858594e+05
    1.6342513263e-02    1.0062447656e+05
    1.6367461532e-02    1.0059527344e+05
    1.6392435879e-02    1.0055500000e+05
    1.6417443752e-02    1.0051662500e+05
    1.6442479566e-02    1.0048571094e+05
    1.6467543319e-02    1.0044807031e+05
    1.6492636874e-02    1.0041577344e+05
    1.6517756507e-02    1.0038250781e+05
    1.6542907804e-02    1.0035424219e+05
    1.6568088904e-02    1.0033790625e+05
    1.6593271866e-02    1.0031178125e+05
    1.6618426889e-02    1.0028711719e+05
    1.6643559560e-02    1.0026380469e+05
    1.6668669879e-02    1.0023888281e+05
    1.6693757847e-02    1.0021572656e+05
    1.6718825325e-02    1.0019557031e+05
    1.6743874177e-02    1.0017731250e+05
    1.6768900678e-02    1.0015643750e+05
    1.6793908551e-02    1.0013790625e+05
    1.6818899661e-02    1.0012271094e+05
    1.6843874007e-02    1.0010492969e+05
    1.6868829727e-02    1.0009108594e+05
    1.6893770546e-02    1.0007194531e+05
    1.6918692738e-02    1.0005434375e+05
    1.6943598166e-02    1.0003631250e+05
    1.6968490556e-02    1.0002472656e+05
    1.6993366182e-02    1.0002044531e+05
    1.7018226907e-02    1.0001200000e+05
    1.7043072730e-02    1.0001074219e+05
    1.7067901790e-02    1.0001577344e+05
    1.7092714086e-02    1.0002272656e+05
    1.7117511481e-02    1.0003321094e+05
    1.7142292112e-02    1.0004621875e+05
    1.7167057842e-02    1.0007572656e+05
    1.7191808671e-02    1.0009794531e+05
    1.7216544598e-02    1.0012860156e+05
    1.7241263762e-02    1.0016050000e+05
    1.7265968025e-02    1.0018866406e+05
    1.7290659249e-02    1.0020927344e+05
    1.7315333709e-02    1.0023627344e+05
    1.7339993268e-02    1.0025700781e+05
    1.7364639789e-02    1.0027585156e+05
    1.7389267683e-02    1.0028914844e+05
    1.7413880676e-02    1.0029510156e+05
    1.7438478768e-02    1.0029561719e+05
    1.7463061959e-02    1.0029980469e+05
    1.7487626523e-02    1.0030419531e+05
    1.7512176186e-02    1.0030432031e+05
    1.7536709085e-02    1.0030137500e+05
    1.7561223358e-02    1.0029994531e+05
    1.7585720867e-02    1.0029439844e+05
    1.7610201612e-02    1.0028782031e+05
    1.7634663731e-02    1.0028141406e+05
    1.7659107223e-02    1.0028007031e+05
    1.7683532089e-02    1.0027228906e+05
    1.7707940191e-02    1.0026278125e+05
    1.7732329667e-02    1.0025958594e+05
    1.7756698653e-02    1.0025632031e+05
    1.7781050876e-02    1.0025205469e+05
    1.7805384472e-02    1.0024922656e+05
    1.7829699442e-02    1.0024346094e+05
    1.7853999510e-02    1.0024082031e+05
    1.7878280953e-02    1.0024859375e+05
    1.7902545631e-02    1.0025736719e+05
    1.7926793545e-02    1.0027675000e+05
    1.7951028422e-02    1.0029932031e+05
    1.7975246534e-02    1.0032678125e+05
    1.7999447882e-02    1.0036394531e+05
    1.8023636192e-02    1.0041096094e+05
    1.8047811463e-02    1.0045762500e+05
    1.8071975559e-02    1.0051933594e+05
    1.8096126616e-02    1.0057660156e+05
    1.8120266497e-02    1.0063433594e+05
    1.8144397065e-02    1.0069341406e+05
    1.8168520182e-02    1.0076015625e+05
    1.8192630261e-02    1.0082271094e+05
    1.8216732889e-02    1.0088606250e+05
    1.8240824342e-02    1.0094509375e+05
    1.8264908344e-02    1.0100037500e+05
    1.8288983032e-02    1.0105460156e+05
    1.8313048407e-02    1.0110296094e+05
    1.8337102607e-02    1.0115157031e+05
    1.8361147493e-02    1.0119262500e+05
    1.8385183066e-02    1.0124307031e+05
    1.8409207463e-02    1.0128141406e+05
    1.8433224410e-02    1.0131691406e+05
    1.8457230181e-02    1.0135894531e+05
    1.8481226638e-02    1.0138825781e+05
    1.8505210057e-02    1.0142178906e+05
    1.8529184163e-02    1.0144834375e+05
    1.8553148955e-02    1.0147453906e+05
    1.8577100709e-02    1.0149662500e+05
    1.8601041287e-02    1.0151538281e+05
    1.8624972552e-02    1.0153333594e+05
    1.8648892641e-02    1.0154757031e+05
    1.8672801554e-02    1.0156288281e+05
    1.8696699291e-02    1.0157903906e+05
    1.8720587716e-02    1.0159303125e+05
    1.8744463101e-02    1.0160886719e+05
    1.8768329173e-02    1.0163518750e+05
    1.8792184070e-02    1.0166191406e+05
    1.8816027790e-02    1.0169796094e+05
    1.8839860335e-02    1.0173699219e+05
    1.8863683566e-02    1.0179028906e+05
    1.8887493759e-02    1.0186021875e+05
    1.8911294639e-02    1.0195208594e+05
    1.8935086206e-02    1.0204846094e+05
    1.8958866596e-02    1.0216017969e+05
    1.8982635811e-02    1.0229384375e+05
    1.9006397575e-02    1.0242322656e+05
    1.9030146301e-02    1.0256471094e+05
    1.9053885713e-02    1.0270314844e+05
    1.9077615812e-02    1.0284022656e+05
    1.9101334736e-02    1.0296089844e+05
    1.9125042483e-02    1.0306158594e+05
    1.9148740917e-02    1.0313853906e+05
    1.9172428176e-02    1.0317969531e+05
    1.9196104258e-02    1.0319777344e+05
    1.9219771028e-02    1.0317744531e+05
    1.9243424758e-02    1.0312635156e+05
    1.9267069176e-02    1.0304075000e+05
    1.9290700555e-02    1.0291562500e+05
    1.9314322621e-02    1.0276491406e+05
    1.9337931648e-02    1.0257928125e+05
    1.9361529499e-02    1.0236911719e+05
    1.9385114312e-02    1.0214540625e+05
    1.9408687949e-02    1.0192241406e+05
    1.9432250410e-02    1.0169924219e+05
    1.9455801696e-02    1.0149558594e+05
    1.9479339942e-02    1.0131840625e+05
    1.9502865151e-02    1.0117133594e+05
    1.9526379183e-02    1.0105761719e+05
    1.9549878314e-02    1.0098613281e+05
    1.9573366269e-02    1.0094737500e+05
    1.9596841186e-02    1.0093107031e+05
    1.9620303065e-02    1.0093850000e+05
    1.9643751904e-02    1.0096472656e+05
    1.9667187706e-02    1.0099360156e+05
    1.9690606743e-02    1.0104110156e+05
    1.9714014605e-02    1.0109192969e+05
    1.9737409428e-02    1.0114421875e+05
    1.9760791212e-02    1.0119828906e+05
    1.9784159958e-02    1.0125615625e+05
    1.9807513803e-02    1.0130530469e+05
    1.9830854610e-02    1.0134872656e+05
    1.9854182377e-02    1.0138563281e+05
    1.9877497107e-02    1.0142215625e+05
    1.9900798798e-02    1.0146037500e+05
    1.9924087450e-02    1.0149847656e+05
    1.9947361201e-02    1.0152582031e+05
    1.9970623776e-02    1.0156135156e+05
    1.9993871450e-02    1.0158322656e+05
    2.0017107949e-02    1.0161346875e+05
    2.0040329546e-02    1.0164768750e+05
    2.0063538104e-02    1.0169080469e+05
    2.0086731762e-02    1.0172699219e+05
    2.0109914243e-02    1.0176566406e+05
    2.0133081824e-02    1.0181406250e+05
    2.0156236365e-02    1.0186816406e+05
    2.0179376006e-02    1.0192597656e+05
    2.0202504471e-02    1.0199242969e+05
    2.0225618035e-02    1.0206493750e+05
    2.0248720422e-02    1.0212902344e+05
    2.0271807909e-02    1.0219586719e+05
    2.0294882357e-02    1.0226522656e+05
    2.0317947492e-02    1.0233272656e+05
    2.0340997726e-02    1.0238947656e+05
    2.0364036784e-02    1.0244238281e+05
    2.0387060940e-02    1.0249180469e+05
    2.0410073921e-02    1.0253112500e+05
    2.0433073863e-02    1.0256324219e+05
    2.0456060767e-02    1.0259641406e+05
    2.0479036495e-02    1.0261999219e+05
    2.0501999184e-02    1.0263853906e+05
    2.0524948835e-02    1.0265889844e+05
    2.0547885448e-02    1.0267197656e+05
    2.0570809022e-02    1.0268449219e+05
    2.0593719557e-02    1.0268491406e+05
    2.0616617054e-02    1.0269300781e+05
    2.0639499649e-02    1.0269147656e+05
    2.0662369207e-02    1.0269500000e+05
    2.0685223863e-02    1.0268857031e+05
    2.0708063617e-02    1.0268267969e+05
    2.0730890334e-02    1.0266578906e+05
    2.0753700286e-02    1.0265547656e+05
    2.0776495337e-02    1.0264135156e+05
    2.0799275488e-02    1.0262310156e+05
    2.0822042599e-02    1.0259900000e+05
    2.0844791085e-02    1.0257057031e+05
    2.0867524669e-02    1.0253771094e+05
    2.0890241489e-02    1.0250900000e+05
    2.0912945271e-02    1.0247658594e+05
    2.0935632288e-02    1.0244639844e+05
    2.0958306268e-02    1.0240514844e+05
    2.0980965346e-02    1.0236449219e+05
    2.1003607661e-02    1.0232089844e+05
    2.1026238799e-02    1.0227252344e+05
    2.1048855036e-02    1.0222890625e+05
    2.1071458235e-02    1.0217909375e+05
    2.1094048396e-02    1.0213722656e+05
    2.1116625518e-02    1.0208760156e+05
    2.1139191464e-02    1.0204557031e+05
    2.1161744371e-02    1.0200953906e+05
    2.1184286103e-02    1.0197787500e+05
    2.1206818521e-02    1.0195475781e+05
    2.1229337901e-02    1.0193958594e+05
    2.1251846105e-02    1.0192689844e+05
    2.1274344996e-02    1.0192109375e+05
    2.1296832711e-02    1.0191677344e+05
    2.1319312975e-02    1.0191383594e+05
    2.1341778338e-02    1.0191958594e+05
    2.1364232525e-02    1.0193030469e+05
    2.1386675537e-02    1.0194744531e+05
    2.1409107372e-02    1.0196622656e+05
    2.1431528032e-02    1.0197810156e+05
    2.1453931928e-02    1.0200257031e+05
    2.1476324648e-02    1.0201753906e+05
    2.1498700604e-02    1.0203324219e+05
    2.1521063522e-02    1.0205508594e+05
    2.1543409675e-02    1.0206627344e+05
    2.1565740928e-02    1.0207822656e+05
    2.1588053554e-02    1.0208328906e+05
    2.1610351279e-02    1.0208577344e+05
    2.1632634103e-02    1.0208987500e+05
    2.1654898301e-02    1.0208178125e+05
    2.1677147597e-02    1.0207710156e+05
    2.1699378267e-02    1.0205921094e+05
    2.1721594036e-02    1.0203921094e+05
    2.1743793041e-02    1.0201574219e+05
    2.1765975282e-02    1.0198733594e+05
    2.1788140759e-02    1.0195482031e+05
    2.1810289472e-02    1.0191013281e+05
    2.1832419559e-02    1.0187425000e+05
    2.1854531020e-02    1.0183510156e+05
    2.1876627579e-02    1.0179775000e+05
    2.1898705512e-02    1.0176549219e+05
    2.1920768544e-02    1.0172960156e+05
    2.1942811087e-02    1.0169318750e+05
    2.1964838728e-02    1.0165455469e+05
    2.1986849606e-02    1.0162347656e+05
    2.2008845583e-02    1.0160383594e+05
    2.2030822933e-02    1.0158522656e+05
    2.2052785382e-02    1.0156861719e+05
    2.2074732929e-02    1.0156160156e+05
    2.2096665576e-02    1.0155511719e+05
    2.2118583322e-02    1.0155283594e+05
    2.2140489891e-02    1.0155391406e+05
    2.2162377834e-02    1.0156202344e+05
    2.2184254602e-02    1.0157000781e+05
    2.2206118330e-02    1.0158114844e+05
    2.2227969021e-02    1.0159342969e+05
    2.2249806672e-02    1.0160297656e+05
    2.2271629423e-02    1.0161416406e+05
    2.2293440998e-02    1.0162140625e+05
    2.2315241396e-02    1.0163462500e+05
    2.2337028757e-02    1.0164663281e+05
    2.2358803079e-02    1.0165021094e+05
    2.2380566224e-02    1.0165408594e+05
    2.2402318195e-02    1.0165355469e+05
    2.2424057126e-02    1.0165663281e+05
    2.2445784882e-02    1.0165358594e+05
    2.2467501462e-02    1.0164794531e+05
    2.2489206865e-02    1.0164736719e+05
    2.2510899231e-02    1.0164397656e+05
    2.2532582283e-02    1.0163528906e+05
    2.2554252297e-02    1.0163089844e+05
    2.2575911134e-02    1.0162378906e+05
    2.2597560659e-02    1.0161822656e+05
    2.2619199008e-02    1.0161127344e+05
    2.2640828043e-02    1.0160732031e+05
    2.2662445903e-02    1.0159980469e+05
    2.2684050724e-02    1.0160067969e+05
    2.2705646232e-02    1.0160166406e+05
    2.2727232426e-02    1.0159614844e+05
    2.2748809308e-02    1.0159758594e+05
    2.2770375013e-02    1.0160062500e+05
    2.2791929543e-02    1.0160166406e+05
    2.2813472897e-02    1.0160408594e+05
    2.2835006937e-02    1.0160571094e+05
    2.2856531665e-02    1.0160418750e+05
    2.2878047079e-02    1.0160753906e+05
    2.2899549454e-02    1.0160877344e+05
    2.2921044379e-02    1.0161603906e+05
    2.2942528129e-02    1.0161425000e+05
    2.2964000702e-02    1.0161235156e+05
    2.2985465825e-02    1.0161121094e+05
    2.3006917909e-02    1.0160721875e+05
    2.3028360680e-02    1.0159833594e+05
    2.3049792275e-02    1.0159464844e+05
    2.3071214557e-02    1.0159433594e+05
    2.3092625663e-02    1.0159408594e+05
    2.3114029318e-02    1.0159422656e+05
    2.3135419935e-02    1.0159564844e+05
    2.3156799376e-02    1.0159610156e+05
    2.3178169504e-02    1.0159182031e+05
    2.3199530318e-02    1.0159037500e+05
    2.3220879957e-02    1.0158131250e+05
    2.3242218420e-02    1.0157671094e+05
    2.3263547570e-02    1.0157084375e+05
    2.3284865543e-02    1.0156756250e+05
    2.3306174204e-02    1.0157494531e+05
    2.3327469826e-02    1.0157203906e+05
    2.3348756135e-02    1.0155967969e+05
    2.3370031267e-02    1.0155272656e+05
    2.3391297087e-02    1.0154985156e+05
    2.3412553594e-02    1.0154450781e+05
    2.3433798924e-02    1.0154117969e+05
    2.3455033079e-02    1.0153072656e+05
    2.3476256058e-02    1.0152077344e+05
    2.3497469723e-02    1.0151408594e+05
    2.3518672213e-02    1.0151057031e+05
    2.3539865389e-02    1.0150222656e+05
    2.3561049253e-02    1.0149246094e+05
    2.3582221940e-02    1.0148327344e+05
    2.3603385314e-02    1.0147621094e+05
    2.3624535650e-02    1.0147000781e+05
    2.3645676672e-02    1.0146503906e+05
    2.3666808382e-02    1.0145914844e+05
    2.3687927052e-02    1.0145455469e+05
    2.3709038273e-02    1.0144984375e+05
    2.3730138317e-02    1.0144639844e+05
    2.3751227185e-02    1.0144233594e+05
    2.3772306740e-02    1.0144805469e+05
    2.3793375120e-02    1.0144663281e+05
    2.3814432323e-02    1.0145517969e+05
    2.3835480213e-02    1.0145430469e+05
    2.3856516927e-02    1.0145410156e+05
    2.3877544329e-02    1.0145789844e+05
    2.3898560554e-02    1.0146803906e+05
    2.3919565603e-02    1.0147152344e+05
    2.3940561339e-02    1.0147177344e+05
    2.3961545900e-02    1.0147241406e+05
    2.3982519284e-02    1.0148503125e+05
    2.4003483355e-02    1.0149372656e+05
    2.4024436250e-02    1.0149972656e+05
    2.4045377970e-02    1.0150483594e+05
    2.4066310376e-02    1.0150896094e+05
    2.4087233469e-02    1.0150715625e+05
    2.4108145386e-02    1.0151199219e+05
    2.4129044265e-02    1.0150992969e+05
    2.4149935693e-02    1.0151191406e+05
    2.4170814082e-02    1.0151243750e+05
    2.4191683158e-02    1.0151255469e+05
    2.4212542921e-02    1.0150427344e+05
    2.4233391508e-02    1.0150467969e+05
    2.4254228920e-02    1.0149978906e+05
    2.4275057018e-02    1.0149353125e+05
    2.4295873940e-02    1.0148910156e+05
    2.4316681549e-02    1.0148672656e+05
    2.4337477982e-02    1.0148428125e+05
    2.4358265102e-02    1.0148185156e+05
    2.4379042909e-02    1.0147958594e+05
    2.4399809539e-02    1.0147842969e+05
    2.4420566857e-02    1.0147589844e+05
    2.4441312999e-02    1.0146967969e+05
    2.4462047964e-02    1.0146047656e+05
    2.4482775480e-02    1.0145572656e+05
    2.4503491819e-02    1.0146021094e+05
    2.4524198845e-02    1.0145722656e+05
    2.4544894695e-02    1.0146383594e+05
    2.4565581232e-02    1.0146385156e+05
    2.4586258456e-02    1.0146396094e+05
    2.4606924504e-02    1.0146174219e+05
    2.4627581239e-02    1.0146071094e+05
    2.4648228660e-02    1.0146813281e+05
    2.4668866768e-02    1.0147421875e+05
    2.4689495564e-02    1.0148821094e+05
    2.4710113183e-02    1.0150024219e+05
    2.4730721489e-02    1.0150740625e+05
    2.4751318619e-02    1.0152135156e+05
    2.4771906435e-02    1.0153746094e+05
    2.4792486802e-02    1.0155205469e+05
    2.4813055992e-02    1.0156039844e+05
    2.4833614007e-02    1.0157710156e+05
    2.4854162708e-02    1.0158497656e+05
    2.4874702096e-02    1.0159882031e+05
    2.4895232171e-02    1.0161130469e+05
    2.4915752932e-02    1.0161813281e+05
    2.4936262518e-02    1.0162582031e+05
    2.4956764653e-02    1.0162294531e+05
    2.4977253750e-02    1.0163018750e+05
    2.4997735396e-02    1.0163128906e+05
    2.5018205866e-02    1.0163640625e+05
    2.5038668886e-02    1.0163128125e+05
    2.5059120730e-02    1.0161541406e+05
    2.5079563260e-02    1.0160810156e+05
    2.5099996477e-02    1.0158993750e+05
    2.5120420381e-02    1.0157336719e+05
    2.5140833110e-02    1.0155296094e+05
    2.5161236525e-02    1.0153194531e+05
    2.5181630626e-02    1.0150652344e+05
    2.5202017277e-02    1.0147072656e+05
    2.5222390890e-02    1.0143680469e+05
    2.5242757052e-02    1.0140400781e+05
    2.5263112038e-02    1.0137043750e+05
    2.5283459574e-02    1.0133790625e+05
    2.5303795934e-02    1.0131210156e+05
    2.5324124843e-02    1.0128094531e+05
    2.5344440714e-02    1.0125856250e+05
    2.5364749134e-02    1.0124353906e+05
    2.5385048240e-02    1.0123313281e+05
    2.5405339897e-02    1.0123627344e+05
    2.5425618514e-02    1.0124671875e+05
    2.5445887819e-02    1.0126335156e+05
    2.5466147810e-02    1.0127478906e+05
    2.5486400351e-02    1.0129816406e+05
    2.5506639853e-02    1.0132216406e+05
    2.5526873767e-02    1.0135028906e+05
    2.5547094643e-02    1.0138371875e+05
    2.5567308068e-02    1.0141893750e+05
    2.5587510318e-02    1.0144528906e+05
    2.5607703254e-02    1.0148171094e+05
    2.5627886876e-02    1.0150853906e+05
    2.5648061186e-02    1.0153546094e+05
    2.5668226182e-02    1.0155871875e+05
    2.5688380003e-02    1.0158386719e+05
    2.5708526373e-02    1.0160509375e+05
    2.5728661567e-02    1.0162646094e+05
    2.5748789310e-02    1.0164346094e+05
    2.5768904015e-02    1.0166265625e+05
    2.5789011270e-02    1.0166785156e+05
    2.5809109211e-02    1.0168425781e+05
    2.5829195976e-02    1.0170067969e+05
    2.5849273428e-02    1.0171696875e+05
    2.5869343430e-02    1.0173197656e+05
    2.5889402255e-02    1.0174903125e+05
    2.5909451768e-02    1.0176449219e+05
    2.5929493830e-02    1.0176816406e+05
    2.5949522853e-02    1.0178530469e+05
    2.5969544426e-02    1.0179902344e+05
    2.5989556685e-02    1.0181759375e+05
    2.6009559631e-02    1.0183503906e+05
    2.6029553264e-02    1.0184289844e+05
    2.6049537584e-02    1.0185938281e+05
    2.6069512591e-02    1.0186152344e+05
    2.6089478284e-02    1.0186967969e+05
    2.6109432802e-02    1.0187849219e+05
    2.6129379869e-02    1.0187942969e+05
    2.6149315760e-02    1.0188063281e+05
    2.6169244200e-02    1.0189008594e+05
    2.6189163327e-02    1.0188946094e+05
    2.6209073141e-02    1.0188271094e+05
    2.6228975505e-02    1.0187931250e+05
    2.6248866692e-02    1.0186785156e+05
    2.6268748567e-02    1.0186205469e+05
    2.6288621128e-02    1.0186116406e+05
    2.6308484375e-02    1.0185397656e+05
    2.6328338310e-02    1.0185178125e+05
    2.6348184794e-02    1.0184284375e+05
    2.6368021965e-02    1.0183300000e+05
    2.6387847960e-02    1.0182681250e+05
    2.6407664642e-02    1.0182266406e+05
    2.6427472010e-02    1.0181455469e+05
    2.6447271928e-02    1.0181112500e+05
    2.6467062533e-02    1.0180884375e+05
    2.6486843824e-02    1.0180637500e+05
    2.6506617665e-02    1.0180250781e+05
    2.6526380330e-02    1.0179356250e+05
    2.6546133682e-02    1.0178810156e+05
    2.6565877721e-02    1.0178250781e+05
    2.6585612446e-02    1.0178189844e+05
    2.6605339721e-02    1.0178835156e+05
    2.6625057682e-02    1.0178967969e+05
    2.6644766331e-02    1.0178641406e+05
    2.6664465666e-02    1.0178308594e+05
    2.6684155688e-02    1.0178078906e+05
    2.6703836396e-02    1.0177728906e+05
    2.6723509654e-02    1.0177488281e+05
    2.6743173599e-02    1.0177478125e+05
    2.6762828231e-02    1.0177247656e+05
    2.6782475412e-02    1.0177031250e+05
    2.6802113280e-02    1.0176722656e+05
    2.6821739972e-02    1.0177236719e+05
    2.6841359213e-02    1.0176963281e+05
    2.6860967278e-02    1.0176814844e+05
    2.6880569756e-02    1.0176687500e+05
    2.6900164783e-02    1.0176925781e+05
    2.6919748634e-02    1.0176928125e+05
    2.6939325035e-02    1.0176561719e+05
    2.6958892122e-02    1.0175944531e+05
    2.6978449896e-02    1.0175771875e+05
    2.6997998357e-02    1.0175607031e+05
    2.7017539367e-02    1.0175803125e+05
    2.7037071064e-02    1.0175539844e+05
    2.7056595311e-02    1.0175518750e+05
    2.7076110244e-02    1.0175382031e+05
    2.7095617726e-02    1.0175358594e+05
    2.7115115896e-02    1.0175221094e+05
    2.7134604752e-02    1.0175083594e+05
    2.7154086158e-02    1.0175400000e+05
    2.7173558250e-02    1.0175278906e+05
    2.7193021029e-02    1.0174589844e+05
    2.7212476358e-02    1.0174110156e+05
    2.7231922373e-02    1.0174668750e+05
    2.7251357213e-02    1.0174535156e+05
    2.7270786464e-02    1.0174177344e+05
    2.7290204540e-02    1.0173812500e+05
    2.7309613302e-02    1.0173663281e+05
    2.7329014614e-02    1.0173493750e+05
    2.7348404750e-02    1.0173205469e+05
    2.7367785573e-02    1.0173147656e+05
    2.7387158945e-02    1.0172747656e+05
    2.7406521142e-02    1.0172578906e+05
    2.7425874025e-02    1.0172643750e+05
    2.7445219457e-02    1.0172217969e+05
    2.7464553714e-02    1.0171327344e+05
    2.7483878657e-02    1.0171067969e+05
    2.7503194287e-02    1.0170534375e+05
    2.7522502467e-02    1.0170331250e+05
    2.7541799471e-02    1.0170135156e+05
    2.7561087161e-02    1.0169827344e+05
    2.7580365539e-02    1.0169422656e+05
    2.7599634603e-02    1.0169042969e+05
    2.7618894354e-02    1.0168822656e+05
    2.7638144791e-02    1.0169796094e+05
    2.7657385916e-02    1.0169887500e+05
    2.7676619589e-02    1.0170507031e+05
    2.7695843950e-02    1.0170472656e+05
    2.7715058997e-02    1.0170921875e+05
    2.7734262869e-02    1.0170964844e+05
    2.7753459290e-02    1.0171734375e+05
    2.7772648260e-02    1.0172391406e+05
    2.7791827917e-02    1.0172635156e+05
    2.7810998261e-02    1.0172914844e+05
    2.7830159292e-02    1.0173237500e+05
    2.7849311009e-02    1.0174142969e+05
    2.7868455276e-02    1.0174636719e+05
    2.7887590230e-02    1.0175516406e+05
    2.7906717733e-02    1.0175947656e+05
    2.7925835922e-02    1.0176267969e+05
    2.7944946662e-02    1.0176599219e+05
    2.7964048088e-02    1.0176815625e+05
    2.7983140200e-02    1.0177161719e+05
    2.8002224863e-02    1.0177742969e+05
    2.8021300212e-02    1.0178112500e+05
    2.8040368110e-02    1.0178378906e+05
    2.8059426695e-02    1.0179014844e+05
    2.8078475967e-02    1.0179161719e+05
    2.8097519651e-02    1.0179527344e+05
    2.8116554022e-02    1.0180102344e+05
    2.8135580942e-02    1.0180318750e+05
    2.8154598549e-02    1.0180077344e+05
    2.8173606843e-02    1.0179890625e+05
    2.8192607686e-02    1.0180385156e+05
    2.8211599216e-02    1.0180646094e+05
    2.8230583295e-02    1.0181394531e+05
    2.8249559924e-02    1.0181808594e+05
    2.8268527240e-02    1.0182350000e+05
    2.8287487105e-02    1.0181846094e+05
    2.8306435794e-02    1.0182021094e+05
    2.8325378895e-02    1.0182880469e+05
    2.8344312683e-02    1.0183422656e+05
    2.8363237157e-02    1.0183964844e+05
    2.8382156044e-02    1.0184052344e+05
    2.8401065618e-02    1.0184127344e+05
    2.8419965878e-02    1.0184453906e+05
    2.8438858688e-02    1.0185267969e+05
    2.8457742184e-02    1.0185612500e+05
    2.8476616368e-02    1.0185035156e+05
    2.8495483100e-02    1.0186293750e+05
    2.8514338657e-02    1.0186757031e+05
    2.8533160686e-02    1.0187110156e+05
    2.8551930562e-02    1.0187441406e+05
    2.8570635244e-02    1.0187430469e+05
    2.8589271009e-02    1.0188062500e+05
    2.8607837856e-02    1.0187550000e+05
    2.8626350686e-02    1.0187625000e+05
    2.8644818813e-02    1.0188965625e+05
    2.8663259000e-02    1.0188477344e+05
    2.8681686148e-02    1.0188681250e+05
    2.8700113297e-02    1.0188872656e+05
    2.8718546033e-02    1.0189180469e+05
    2.8736986220e-02    1.0189244531e+05
    2.8755431995e-02    1.0189746875e+05
    2.8773877770e-02    1.0189993750e+05
    2.8792314231e-02    1.0189889844e+05
    2.8810730204e-02    1.0190097656e+05
    2.8829116374e-02    1.0189708594e+05
    2.8847465292e-02    1.0190130469e+05
    2.8865773231e-02    1.0190531250e+05
    2.8884036466e-02    1.0190483594e+05
    2.8902258724e-02    1.0190441406e+05
    2.8920443729e-02    1.0190625781e+05
    2.8938598931e-02    1.0191052344e+05
    2.8956729919e-02    1.0191253906e+05
    2.8974846005e-02    1.0191228906e+05
    2.8992949054e-02    1.0191440625e+05
    2.9011042789e-02    1.0191885156e+05
    2.9029129073e-02    1.0191989844e+05
    2.9047204182e-02    1.0192792969e+05
    2.9065268114e-02    1.0192518750e+05
    2.9083315283e-02    1.0192560156e+05
    2.9101338238e-02    1.0192339844e+05
    2.9119335115e-02    1.0191947656e+05
    2.9137304053e-02    1.0192128125e+05
    2.9155241325e-02    1.0192206250e+05
    2.9173148796e-02    1.0192641406e+05
    2.9191024601e-02    1.0193260156e+05
    2.9208874330e-02    1.0193560156e+05
    2.9226697981e-02    1.0193769531e+05
    2.9244501144e-02    1.0194096094e+05
    2.9262285680e-02    1.0194281250e+05
    2.9280053452e-02    1.0193750000e+05
    2.9297806323e-02    1.0193488281e+05
    2.9315544292e-02    1.0193449219e+05
    2.9333265498e-02    1.0193407031e+05
    2.9350971803e-02    1.0193593750e+05
    2.9368655756e-02    1.0193672656e+05
    2.9386319220e-02    1.0193761719e+05
    2.9403960332e-02    1.0193713281e+05
    2.9421577230e-02    1.0193634375e+05
    2.9439168051e-02    1.0193410156e+05
    2.9456734657e-02    1.0192947656e+05
    2.9474277049e-02    1.0193150000e+05
    2.9491795227e-02    1.0192914844e+05
    2.9509292915e-02    1.0193094531e+05
    2.9526771978e-02    1.0192390625e+05
    2.9544232413e-02    1.0192340625e+05
    2.9561674222e-02    1.0192521875e+05
    2.9579099268e-02    1.0192214844e+05
    2.9596509412e-02    1.0191428906e+05
    2.9613900930e-02    1.0191578125e+05
    2.9631273821e-02    1.0192558594e+05
    2.9648626223e-02    1.0192408594e+05
    2.9665958136e-02    1.0192596094e+05
    2.9683271423e-02    1.0191628906e+05
    2.9700560495e-02    1.0191566406e+05
    2.9717829078e-02    1.0192191406e+05
    2.9735075310e-02    1.0191678906e+05
    2.9752301052e-02    1.0192162500e+05
    2.9769508168e-02    1.0191733594e+05
    2.9786696658e-02    1.0190963281e+05
    2.9803866521e-02    1.0191794531e+05
    2.9821017757e-02    1.0191277344e+05
    2.9838152230e-02    1.0191664844e+05
    2.9855269939e-02    1.0191496094e+05
    2.9872370884e-02    1.0191447656e+05
    2.9889453202e-02    1.0191280469e+05
    2.9906518757e-02    1.0191003125e+05
    2.9923565686e-02    1.0191277344e+05
    2.9940593988e-02    1.0191121094e+05
    2.9957601801e-02    1.0191316406e+05
    2.9974590987e-02    1.0191278906e+05
    2.9991561547e-02    1.0191239844e+05
    3.0008511618e-02    1.0190953906e+05
    3.0025444925e-02    1.0190202344e+05
    3.0042361468e-02    1.0190602344e+05
    3.0059259385e-02    1.0191141406e+05
    3.0076142401e-02    1.0191127344e+05
    3.0093006790e-02    1.0191012500e+05
    3.0109854415e-02    1.0191024219e+05
    3.0126683414e-02    1.0191047656e+05
    3.0143497512e-02    1.0191421094e+05
    3.0160292983e-02    1.0191571094e+05
    3.0177071691e-02    1.0191605469e+05
    3.0193833634e-02    1.0191650000e+05
    3.0210576952e-02    1.0191939844e+05
    3.0227303505e-02    1.0192027344e+05
    3.0244011432e-02    1.0192150000e+05
    3.0260702595e-02    1.0192503906e+05
    3.0277376994e-02    1.0193305469e+05
    3.0294034630e-02    1.0193430469e+05
    3.0310675502e-02    1.0192516406e+05
    3.0327299610e-02    1.0192746875e+05
    3.0343905091e-02    1.0193796094e+05
    3.0360495672e-02    1.0193955469e+05
    3.0377071351e-02    1.0194369531e+05
    3.0393628404e-02    1.0194567969e+05
    3.0410168692e-02    1.0194678125e+05
    3.0426690355e-02    1.0195043750e+05
    3.0443195254e-02    1.0196239844e+05
    3.0459685251e-02    1.0196302344e+05
    3.0476156622e-02    1.0196815625e+05
    3.0492611229e-02    1.0196171094e+05
    3.0509050936e-02    1.0196428906e+05
    3.0525473878e-02    1.0197846094e+05
    3.0541881919e-02    1.0197896094e+05
    3.0558273196e-02    1.0198178906e+05
    3.0574647710e-02    1.0198458594e+05
    3.0591005459e-02    1.0198602344e+05
    3.0607348308e-02    1.0198050000e+05
    3.0623674393e-02    1.0198287500e+05
    3.0639985576e-02    1.0199006250e+05
    3.0656279996e-02    1.0199268750e+05
    3.0672557652e-02    1.0199756250e+05
    3.0688818544e-02    1.0199321875e+05
    3.0705062672e-02    1.0199684375e+05
    3.0721291900e-02    1.0199814844e+05
    3.0737506226e-02    1.0199831250e+05
    3.0753703788e-02    1.0200635156e+05
    3.0769886449e-02    1.0200321094e+05
    3.0786054209e-02    1.0200561719e+05
    3.0802207068e-02    1.0200996875e+05
    3.0818343163e-02    1.0200716406e+05
    3.0834466219e-02    1.0200264844e+05
    3.0850572512e-02    1.0199989844e+05
    3.0866663903e-02    1.0199303906e+05
    3.0882738531e-02    1.0199059375e+05
    3.0898798257e-02    1.0199264844e+05
    3.0914843082e-02    1.0199249219e+05
    3.0930871144e-02    1.0199013281e+05
    3.0946886167e-02    1.0199235156e+05
    3.0962884426e-02    1.0199091406e+05
    3.0978867784e-02    1.0198552344e+05
    3.0994836241e-02    1.0198082031e+05
    3.1010789797e-02    1.0196741406e+05
    3.1026728451e-02    1.0196502344e+05
    3.1042650342e-02    1.0196231250e+05
    3.1058559194e-02    1.0195950781e+05
    3.1074455008e-02    1.0194963281e+05
    3.1090334058e-02    1.0194428906e+05
    3.1106200069e-02    1.0194112500e+05
    3.1122051179e-02    1.0193553906e+05
    3.1137887388e-02    1.0193438281e+05
    3.1153710559e-02    1.0192852344e+05
    3.1169516966e-02    1.0192024219e+05
    3.1185310334e-02    1.0191406250e+05
    3.1201090664e-02    1.0191966406e+05
    3.1216854230e-02    1.0191644531e+05
    3.1232602894e-02    1.0191356250e+05
    3.1248336658e-02    1.0192252344e+05
    3.1264055520e-02    1.0191810156e+05
    3.1279761344e-02    1.0191625781e+05
    3.1295452267e-02    1.0192278125e+05
    3.1311132014e-02    1.0192171094e+05
    3.1326796860e-02    1.0192692969e+05
    3.1342446804e-02    1.0193128906e+05
    3.1358085573e-02    1.0194096094e+05
    3.1373709440e-02    1.0194205469e+05
    3.1389318407e-02    1.0195518750e+05
    3.1404916197e-02    1.0195747656e+05
    3.1420499086e-02    1.0196831250e+05
    3.1436067075e-02    1.0197277344e+05
    3.1451620162e-02    1.0198574219e+05
    3.1467158347e-02    1.0199006250e+05
    3.1482685357e-02    1.0200396875e+05
    3.1498193741e-02    1.0200912500e+05
    3.1513694674e-02    1.0201453906e+05
    3.1529176980e-02    1.0202485156e+05
    3.1544648111e-02    1.0203503906e+05
    3.1560108066e-02    1.0204089844e+05
    3.1575553119e-02    1.0204672656e+05
    3.1590986997e-02    1.0205271094e+05
    3.1606405973e-02    1.0205882031e+05
    3.1621813774e-02    1.0206507031e+05
    3.1637206674e-02    1.0207137500e+05
    3.1652588397e-02    1.0207766406e+05
    3.1667951494e-02    1.0208397656e+05
    3.1683307141e-02    1.0209009375e+05
    3.1698647887e-02    1.0209716406e+05
    3.1713977456e-02    1.0209697656e+05
    3.1729292125e-02    1.0209892969e+05
    3.1744595617e-02    1.0210274219e+05
    3.1759884208e-02    1.0209822656e+05
    3.1775161624e-02    1.0210469531e+05
    3.1790427864e-02    1.0210864844e+05
    3.1805675477e-02    1.0210068750e+05
    3.1820915639e-02    1.0210387500e+05
    3.1836140901e-02    1.0210684375e+05
    3.1851354986e-02    1.0210961719e+05
    3.1866557896e-02    1.0211212500e+05
    3.1881745905e-02    1.0210997656e+05
    3.1896922737e-02    1.0210996094e+05
    3.1912088394e-02    1.0211203906e+05
    3.1927239150e-02    1.0211166406e+05
    3.1942378730e-02    1.0211332031e+05
    3.1957507133e-02    1.0210557031e+05
    3.1972620636e-02    1.0210683594e+05
    3.1987726688e-02    1.0210796094e+05
    3.2002814114e-02    1.0211000781e+05
    3.2017890364e-02    1.0211183594e+05
    3.2032959163e-02    1.0210184375e+05
    3.2048013061e-02    1.0210071094e+05
    3.2063052058e-02    1.0210044531e+05
    3.2078083605e-02    1.0209766406e+05
    3.2093103975e-02    1.0209458594e+05
    3.2108109444e-02    1.0208874219e+05
    3.2123107463e-02    1.0208733594e+05
    3.2138090581e-02    1.0208336719e+05
    3.2153062522e-02    1.0207333594e+05
    3.2168023288e-02    1.0207205469e+05
    3.2182972878e-02    1.0206013281e+05
    3.2197911292e-02    1.0205465625e+05
    3.2212834805e-02    1.0205125781e+05
    3.2227750868e-02    1.0204900781e+05
    3.2242652029e-02    1.0204571094e+05
    3.2257542014e-02    1.0204141406e+05
    3.2272424549e-02    1.0204063281e+05
    3.2287292182e-02    1.0203531250e+05
    3.2302148640e-02    1.0203225000e+05
    3.2316997647e-02    1.0203031250e+05
    3.2331831753e-02    1.0202710156e+05
    3.2346658409e-02    1.0202253125e+05
    3.2361470163e-02    1.0201434375e+05
    3.2376270741e-02    1.0200808594e+05
    3.2391063869e-02    1.0200153906e+05
    3.2405842096e-02    1.0199732031e+05
    3.2420612872e-02    1.0199188281e+05
    3.2435368747e-02    1.0198646875e+05
    3.2450113446e-02    1.0198346094e+05
    3.2464850694e-02    1.0197941406e+05
    3.2479573041e-02    1.0197433594e+05
    3.2494287938e-02    1.0197277344e+05
    3.2508991659e-02    1.0197596094e+05
    3.2523684204e-02    1.0197487500e+05
    3.2538365573e-02    1.0197159375e+05
    3.2553035766e-02    1.0196852344e+05
    3.2567698509e-02    1.0196565625e+05
    3.2582346350e-02    1.0196983594e+05
    3.2596986741e-02    1.0196740625e+05
    3.2611619681e-02    1.0196522656e+05
    3.2626237720e-02    1.0196439844e+05
    3.2640848309e-02    1.0196715625e+05
    3.2655447721e-02    1.0197153906e+05
    3.2670035958e-02    1.0197046875e+05
    3.2684613019e-02    1.0196960156e+05
    3.2699178904e-02    1.0197347656e+05
    3.2713737339e-02    1.0197663281e+05
    3.2728284597e-02    1.0197759375e+05
    3.2742820680e-02    1.0197750781e+05
    3.2757349312e-02    1.0197875781e+05
    3.2771866769e-02    1.0197784375e+05
    3.2786373049e-02    1.0198053906e+05
    3.2800871879e-02    1.0198232031e+05
    3.2815355808e-02    1.0198902344e+05
    3.2829832286e-02    1.0199247656e+05
    3.2844301313e-02    1.0199374219e+05
    3.2858755440e-02    1.0199508594e+05
    3.2873202115e-02    1.0199636719e+05
    3.2887637615e-02    1.0199996094e+05
    3.2902065665e-02    1.0200135156e+05
    3.2916482538e-02    1.0200289844e+05
    3.2930891961e-02    1.0200571875e+05
    3.2945290208e-02    1.0200877344e+05
    3.2959677279e-02    1.0201428906e+05
    3.2974056900e-02    1.0202024219e+05
    3.2988425344e-02    1.0202272656e+05
    3.3002786338e-02    1.0202285156e+05
    3.3017136157e-02    1.0202275781e+05
    3.3031478524e-02    1.0202241406e+05
    3.3045809716e-02    1.0202422656e+05
    3.3060129732e-02    1.0202590625e+05
    3.3074442297e-02    1.0202510156e+05
    3.3088747412e-02    1.0202410156e+05
    3.3103041351e-02    1.0201818750e+05
    3.3117324114e-02    1.0202158594e+05
    3.3131599426e-02    1.0202510156e+05
    3.3145863563e-02    1.0203089844e+05
    3.3160120249e-02    1.0203235156e+05
    3.3174365759e-02    1.0203390625e+05
    3.3188603818e-02    1.0203435156e+05
    3.3202830702e-02    1.0203703125e+05
    3.3217050135e-02    1.0203841406e+05
    3.3231258392e-02    1.0203977344e+05
    3.3245459199e-02    1.0203419531e+05
    3.3259648830e-02    1.0203307031e+05
    3.3273831010e-02    1.0203664844e+05
    3.3288005739e-02    1.0204007031e+05
    3.3302169293e-02    1.0203653125e+05
    3.3316325396e-02    1.0204435156e+05
    3.3330474049e-02    1.0204414844e+05
    3.3344611526e-02    1.0204152344e+05
    3.3358741552e-02    1.0203739844e+05
    3.3372864127e-02    1.0203669531e+05
    3.3386975527e-02    1.0203817969e+05
    3.3401079476e-02    1.0203841406e+05
    3.3415172249e-02    1.0203752344e+05
    3.3429257572e-02    1.0203887500e+05
    3.3443335444e-02    1.0203905469e+05
    3.3457405865e-02    1.0203696094e+05
    3.3471468836e-02    1.0203927344e+05
    3.3485524356e-02    1.0203471094e+05
    3.3499568701e-02    1.0202971094e+05
    3.3513605595e-02    1.0203156250e+05
    3.3527631313e-02    1.0202891406e+05
    3.3541653305e-02    1.0202975000e+05
    3.3555664122e-02    1.0203292969e+05
    3.3569667488e-02    1.0203528906e+05
    3.3583663404e-02    1.0203760156e+05
    3.3597648144e-02    1.0203193750e+05
    3.3611625433e-02    1.0202828125e+05
    3.3625595272e-02    1.0203031250e+05
    3.3639557660e-02    1.0202774219e+05
    3.3653512597e-02    1.0202736719e+05
    3.3667460084e-02    1.0202689844e+05
    3.3681396395e-02    1.0202752344e+05
    3.3695328981e-02    1.0202575000e+05
    3.3709254116e-02    1.0202489844e+05
    3.3723168075e-02    1.0201916406e+05
    3.3737078309e-02    1.0201313281e+05
    3.3750977367e-02    1.0201152344e+05
    3.3764872700e-02    1.0200971875e+05
    3.3778760582e-02    1.0200783594e+05
    3.3792637289e-02    1.0200597656e+05
    3.3806510270e-02    1.0200417969e+05
    3.3820372075e-02    1.0200247656e+05
    3.3834230155e-02    1.0200078125e+05
    3.3848077059e-02    1.0199915625e+05
    3.3861916512e-02    1.0199757031e+05
    3.3875752240e-02    1.0199377344e+05
    3.3889576793e-02    1.0199464844e+05
    3.3903393894e-02    1.0199332031e+05
    3.3917203546e-02    1.0199214844e+05
    3.3931009471e-02    1.0199119531e+05
    3.3944804221e-02    1.0199046094e+05
    3.3958595246e-02    1.0198968750e+05
    3.3972378820e-02    1.0198891406e+05
    3.3986151218e-02    1.0198800781e+05
    3.3999919891e-02    1.0198703906e+05
    3.4013681114e-02    1.0198575781e+05
    3.4027434886e-02    1.0198410156e+05
    3.4041177481e-02    1.0198094531e+05
    3.4054916352e-02    1.0196825781e+05
    3.4068647772e-02    1.0196794531e+05
    3.4082375467e-02    1.0196521094e+05
    3.4096091986e-02    1.0196257031e+05
    3.4109804779e-02    1.0195772656e+05
    3.4123510122e-02    1.0195999219e+05
    3.4137208015e-02    1.0196241406e+05
    3.4150898457e-02    1.0196039844e+05
    3.4164581448e-02    1.0195594531e+05
    3.4178260714e-02    1.0194710156e+05
    3.4191932529e-02    1.0194497656e+05
    3.4205596894e-02    1.0194510156e+05
    3.4219253808e-02    1.0194292969e+05
    3.4232903272e-02    1.0193849219e+05
    3.4246545285e-02    1.0193634375e+05
    3.4260183573e-02    1.0193893750e+05
    3.4273810685e-02    1.0193694531e+05
    3.4287434071e-02    1.0193044531e+05
    3.4301050007e-02    1.0192981250e+05
    3.4314658493e-02    1.0193369531e+05
    3.4328263253e-02    1.0193197656e+05
    3.4341860563e-02    1.0192572656e+05
    3.4355450422e-02    1.0192387500e+05
    3.4369036555e-02    1.0192885156e+05
    3.4382611513e-02    1.0192360156e+05
    3.4396182746e-02    1.0191802344e+05
    3.4409742802e-02    1.0191600781e+05
    3.4423299134e-02    1.0191392969e+05
    3.4436848015e-02    1.0191642969e+05
    3.4450393170e-02    1.0191116406e+05
    3.4463927150e-02    1.0190803906e+05
    3.4477461129e-02    1.0190841406e+05
    3.4490987659e-02    1.0190428906e+05
    3.4504506737e-02    1.0190465625e+05
    3.4518022090e-02    1.0190058594e+05
    3.4531529993e-02    1.0190109375e+05
    3.4545030445e-02    1.0189952344e+05
    3.4558523446e-02    1.0189808594e+05
    3.4572008997e-02    1.0190362500e+05
    3.4585487098e-02    1.0190467969e+05
    3.4598957747e-02    1.0189437500e+05
    3.4612424672e-02    1.0189316406e+05
    3.4625884145e-02    1.0189652344e+05
    3.4639336169e-02    1.0190010156e+05
    3.4652780741e-02    1.0190016406e+05
    3.4666225314e-02    1.0189314844e+05
    3.4679658711e-02    1.0189416406e+05
    3.4693088382e-02    1.0189280469e+05
    3.4706510603e-02    1.0189378125e+05
    3.4719929099e-02    1.0189116406e+05
    3.4733340144e-02    1.0188971094e+05
    3.4746743739e-02    1.0188946094e+05
    3.4760143608e-02    1.0188803906e+05
    3.4773536026e-02    1.0188667969e+05
    3.4786924720e-02    1.0188531250e+05
    3.4800305963e-02    1.0188622656e+05
    3.4813679755e-02    1.0188494531e+05
    3.4827046096e-02    1.0188138281e+05
    3.4840408713e-02    1.0188008594e+05
    3.4853763878e-02    1.0187075000e+05
    3.4867111593e-02    1.0187746094e+05
    3.4880455583e-02    1.0187628906e+05
    3.4893795848e-02    1.0187511719e+05
    3.4907124937e-02    1.0186933594e+05
    3.4920454025e-02    1.0186461719e+05
    3.4933775663e-02    1.0186458594e+05
    3.4947093576e-02    1.0186802344e+05
    3.4960404038e-02    1.0186680469e+05
    3.4973710775e-02    1.0186114844e+05
    3.4987010062e-02    1.0186812500e+05
endcurve
