Curveplot
LS-DYNA keyword deck by LS-PrePost                          
Time
Pressure
Defined Connection
Pressure @ 86 #pts=1745
* Minval=     9.9988843750e+04 at time=         0.0006723464
* Maxval=     1.6724478125e+05 at time=         0.0078188432
    0.0000000000e+00    9.9998710938e+04
    3.3812357287e-05    9.9998710938e+04
    6.1326652940e-05    9.9998914062e+04
    8.9102875791e-05    9.9996679688e+04
    1.1682785407e-04    9.9999031250e+04
    1.4461828687e-04    9.9999320312e+04
    1.7236733402e-04    9.9997468750e+04
    2.0016246708e-04    1.0000264844e+05
    2.2795486439e-04    1.0000778125e+05
    2.5574557367e-04    1.0000125781e+05
    2.8353667585e-04    9.9998742188e+04
    3.1133697485e-04    9.9991476562e+04
    3.3912662184e-04    1.0000028906e+05
    3.6691734567e-04    9.9998195312e+04
    3.9470891352e-04    1.0000115625e+05
    4.2249175021e-04    1.0000372656e+05
    4.5027161832e-04    1.0000283594e+05
    4.7804549104e-04    1.0000171875e+05
    5.0581363030e-04    1.0000152344e+05
    5.3357944125e-04    1.0000253906e+05
    5.6134146871e-04    9.9999085938e+04
    5.8909942163e-04    9.9998835938e+04
    6.1685312539e-04    1.0000059375e+05
    6.4460188150e-04    9.9999195312e+04
    6.7234638846e-04    9.9988843750e+04
    7.0008635521e-04    9.9999976562e+04
    7.2782178177e-04    1.0000025781e+05
    7.5555208605e-04    1.0000083594e+05
    7.8327720985e-04    1.0000172656e+05
    8.1099680392e-04    1.0000253125e+05
    8.3871174138e-04    1.0000528125e+05
    8.6642213864e-04    1.0000427344e+05
    8.9412782108e-04    1.0000066406e+05
    9.2182843946e-04    1.0000225000e+05
    9.4952445943e-04    9.9992226562e+04
    9.7721535712e-04    9.9991820312e+04
    1.0049008997e-03    1.0000093750e+05
    1.0325826006e-03    1.0000830469e+05
    1.0602590628e-03    1.0000875000e+05
    1.0879321489e-03    1.0000209375e+05
    1.1155996472e-03    9.9992851562e+04
    1.1432634201e-03    9.9992585938e+04
    1.1709230021e-03    9.9995914062e+04
    1.1985785095e-03    1.0000389844e+05
    1.2262313394e-03    1.0000168750e+05
    1.2538790470e-03    1.0000164844e+05
    1.2815232622e-03    1.0000200000e+05
    1.3091630535e-03    1.0000299219e+05
    1.3368004002e-03    1.0000552344e+05
    1.3644339051e-03    1.0001303125e+05
    1.3920635683e-03    1.0002321875e+05
    1.4196902048e-03    1.0005377344e+05
    1.4473132323e-03    1.0010671094e+05
    1.4749332331e-03    1.0019172656e+05
    1.5025498578e-03    1.0032259375e+05
    1.5301633393e-03    1.0051112500e+05
    1.5577742597e-03    1.0077575000e+05
    1.5853822697e-03    1.0109963281e+05
    1.6129877185e-03    1.0147372656e+05
    1.6405890929e-03    1.0186339844e+05
    1.6681876732e-03    1.0225141406e+05
    1.6957829939e-03    1.0259150781e+05
    1.7233766848e-03    1.0287291406e+05
    1.7509678146e-03    1.0305346094e+05
    1.7785291420e-03    1.0314160156e+05
    1.8060547300e-03    1.0313658594e+05
    1.8335470231e-03    1.0305707031e+05
    1.8610082334e-03    1.0291336719e+05
    1.8884401070e-03    1.0275003906e+05
    1.9158447394e-03    1.0258067969e+05
    1.9432241097e-03    1.0241716406e+05
    1.9705800805e-03    1.0229293750e+05
    1.9979148638e-03    1.0221221094e+05
    2.0252298564e-03    1.0219237500e+05
    2.0525271539e-03    1.0221539844e+05
    2.0798076876e-03    1.0227250781e+05
    2.1070730872e-03    1.0234514844e+05
    2.1343247499e-03    1.0242189844e+05
    2.1615643054e-03    1.0248150781e+05
    2.1887931507e-03    1.0252443750e+05
    2.2160108201e-03    1.0254547656e+05
    2.2432196420e-03    1.0253634375e+05
    2.2704207804e-03    1.0251858594e+05
    2.2976147011e-03    1.0248296094e+05
    2.3248014040e-03    1.0244507031e+05
    2.3519827519e-03    1.0241458594e+05
    2.3791582789e-03    1.0238957031e+05
    2.4063293822e-03    1.0238315625e+05
    2.4334960617e-03    1.0237937500e+05
    2.4606597144e-03    1.0239338281e+05
    2.4878205732e-03    1.0241268750e+05
    2.5149781723e-03    1.0243283594e+05
    2.5421329774e-03    1.0244197656e+05
    2.5692859199e-03    1.0244797656e+05
    2.5964374654e-03    1.0244564844e+05
    2.6235871483e-03    1.0244316406e+05
    2.6507352013e-03    1.0243483594e+05
    2.6778825559e-03    1.0243306250e+05
    2.7050296776e-03    1.0242481250e+05
    2.7321761008e-03    1.0241816406e+05
    2.7593218256e-03    1.0241152344e+05
    2.7864677832e-03    1.0241188281e+05
    2.8136142064e-03    1.0242313281e+05
    2.8407603968e-03    1.0243825781e+05
    2.8679079842e-03    1.0244716406e+05
    2.8950548731e-03    1.0246360156e+05
    2.9222022276e-03    1.0248890625e+05
    2.9493502807e-03    1.0252349219e+05
    2.9764990322e-03    1.0257224219e+05
    3.0036487151e-03    1.0263362500e+05
    3.0307997949e-03    1.0272483594e+05
    3.0579508748e-03    1.0281606250e+05
    3.0851035845e-03    1.0291338281e+05
    3.1122572254e-03    1.0302128906e+05
    3.1394117977e-03    1.0312459375e+05
    3.1665677670e-03    1.0320191406e+05
    3.1937246677e-03    1.0325755469e+05
    3.2208829653e-03    1.0329940625e+05
    3.2480424270e-03    1.0331010156e+05
    3.2752046827e-03    1.0329828125e+05
    3.2952371985e-03    1.0325696094e+05
    3.3145032357e-03    1.0322722656e+05
    3.3336398192e-03    1.0318121094e+05
    3.3528339118e-03    1.0313569531e+05
    3.3720366191e-03    1.0309837500e+05
    3.3912549261e-03    1.0305828906e+05
    3.4104890656e-03    1.0301597656e+05
    3.4297339153e-03    1.0297753906e+05
    3.4486323129e-03    1.0292812500e+05
    3.4671388566e-03    1.0288874219e+05
    3.4854323603e-03    1.0283178125e+05
    3.5036695190e-03    1.0277185156e+05
    3.5219141282e-03    1.0270756250e+05
    3.5401545465e-03    1.0263889844e+05
    3.5583588760e-03    1.0256615625e+05
    3.5765271168e-03    1.0249925781e+05
    3.5946895368e-03    1.0242891406e+05
    3.6139658187e-03    1.0237575781e+05
    3.6330535077e-03    1.0232321875e+05
    3.6521453876e-03    1.0227837500e+05
    3.6699753255e-03    1.0224672656e+05
    3.6875614896e-03    1.0222239844e+05
    3.7050142419e-03    1.0220527344e+05
    3.7224807311e-03    1.0219077344e+05
    3.7400643341e-03    1.0217884375e+05
    3.7577797193e-03    1.0216891406e+05
    3.7755726371e-03    1.0215634375e+05
    3.7933769636e-03    1.0214533594e+05
    3.8111612666e-03    1.0214040625e+05
    3.8289318327e-03    1.0213021875e+05
    3.8467168342e-03    1.0212865625e+05
    3.8645383902e-03    1.0212640625e+05
    3.8824023213e-03    1.0211831250e+05
    3.9002960548e-03    1.0211068750e+05
    3.9182156324e-03    1.0209264844e+05
    3.9361710660e-03    1.0206947656e+05
    3.9541716687e-03    1.0204700781e+05
    3.9733103476e-03    1.0202896875e+05
    3.9924201556e-03    1.0201449219e+05
    4.0104058571e-03    1.0199841406e+05
    4.0284004062e-03    1.0198897656e+05
    4.0464363992e-03    1.0198296094e+05
    4.0656095371e-03    1.0197791406e+05
    4.0847789496e-03    1.0196334375e+05
    4.1039343923e-03    1.0195981250e+05
    4.1219722480e-03    1.0195700781e+05
    4.1400394402e-03    1.0194560156e+05
    4.1591953486e-03    1.0194487500e+05
    4.1784178466e-03    1.0193609375e+05
    4.1976389475e-03    1.0192150781e+05
    4.2168586515e-03    1.0191156250e+05
    4.2360713705e-03    1.0190647656e+05
    4.2552771047e-03    1.0189925000e+05
    4.2744791135e-03    1.0188864844e+05
    4.2936825193e-03    1.0187996094e+05
    4.3128933758e-03    1.0186828906e+05
    4.3321144767e-03    1.0185332031e+05
    4.3513495475e-03    1.0183918750e+05
    4.3705995195e-03    1.0181847656e+05
    4.3898657896e-03    1.0179796094e+05
    4.4091497548e-03    1.0177969531e+05
    4.4284537435e-03    1.0175618750e+05
    4.4477786869e-03    1.0171850781e+05
    4.4671236537e-03    1.0167819531e+05
    4.4864914380e-03    1.0163068750e+05
    4.5058806427e-03    1.0156234375e+05
    4.5252908021e-03    1.0148616406e+05
    4.5447219163e-03    1.0140334375e+05
    4.5641721226e-03    1.0131064844e+05
    4.5836409554e-03    1.0120962500e+05
    4.6031279489e-03    1.0110644531e+05
    4.6226321720e-03    1.0098853906e+05
    4.6421540901e-03    1.0086596875e+05
    4.6616927721e-03    1.0074255469e+05
    4.6812482178e-03    1.0061371094e+05
    4.7008208930e-03    1.0049560156e+05
    4.7204112634e-03    1.0039346094e+05
    4.7400193289e-03    1.0030774219e+05
    4.7596455552e-03    1.0023385156e+05
    4.7792894766e-03    1.0018015625e+05
    4.7989510931e-03    1.0014887500e+05
    4.8186304048e-03    1.0014318750e+05
    4.8383255489e-03    1.0015415625e+05
    4.8580355942e-03    1.0019231250e+05
    4.8777610064e-03    1.0023503906e+05
    4.8975008540e-03    1.0028950000e+05
    4.9172551371e-03    1.0035025781e+05
    4.9370229244e-03    1.0040711719e+05
    4.9568060786e-03    1.0046791406e+05
    4.9766036682e-03    1.0052743750e+05
    4.9964170903e-03    1.0057260156e+05
    5.0162458792e-03    1.0061330469e+05
    5.0360900350e-03    1.0065058594e+05
    5.0559476949e-03    1.0067002344e+05
    5.0758207217e-03    1.0067783594e+05
    5.0957072526e-03    1.0067618750e+05
    5.1156077534e-03    1.0067690625e+05
    5.1355226897e-03    1.0066484375e+05
    5.1554525271e-03    1.0065000000e+05
    5.1753963344e-03    1.0063346875e+05
    5.1953555085e-03    1.0061606250e+05
    5.2153295837e-03    1.0059878906e+05
    5.2353194915e-03    1.0058721094e+05
    5.2553247660e-03    1.0057512500e+05
    5.2753463387e-03    1.0057411719e+05
    5.2953832783e-03    1.0057291406e+05
    5.3154369816e-03    1.0057825000e+05
    5.3355065174e-03    1.0058091406e+05
    5.3555918857e-03    1.0059415625e+05
    5.3756926209e-03    1.0059961719e+05
    5.3958082572e-03    1.0061496875e+05
    5.4159392603e-03    1.0062864844e+05
    5.4360851645e-03    1.0063778906e+05
    5.4562464356e-03    1.0064633594e+05
    5.4764230736e-03    1.0065409375e+05
    5.4966160096e-03    1.0066336719e+05
    5.5168238468e-03    1.0066731250e+05
    5.5370470509e-03    1.0066480469e+05
    5.5572865531e-03    1.0066497656e+05
    5.5775423534e-03    1.0067524219e+05
    5.5978130549e-03    1.0066825000e+05
    5.6181000546e-03    1.0067238281e+05
    5.6384028867e-03    1.0067322656e+05
    5.6587206200e-03    1.0067647656e+05
    5.6790532544e-03    1.0067800000e+05
    5.6994007900e-03    1.0067878125e+05
    5.7197632268e-03    1.0068321094e+05
    5.7401410304e-03    1.0068672656e+05
    5.7605337352e-03    1.0069041406e+05
    5.7809422724e-03    1.0069406250e+05
    5.8013652451e-03    1.0069756250e+05
    5.8218040504e-03    1.0070106250e+05
    5.8422577567e-03    1.0070457031e+05
    5.8627268299e-03    1.0070825781e+05
    5.8832112700e-03    1.0071213281e+05
    5.9037101455e-03    1.0072512500e+05
    5.9242248535e-03    1.0072671875e+05
    5.9447535314e-03    1.0073052344e+05
    5.9641525149e-03    1.0073666406e+05
    5.9830932878e-03    1.0074062500e+05
    6.0020405799e-03    1.0074364844e+05
    6.0210367665e-03    1.0074689844e+05
    6.0400799848e-03    1.0075842969e+05
    6.0591096990e-03    1.0076814844e+05
    6.0781282373e-03    1.0077358594e+05
    6.0972142965e-03    1.0077905469e+05
    6.1162756756e-03    1.0078442969e+05
    6.1353649944e-03    1.0078972656e+05
    6.1544459313e-03    1.0079835156e+05
    6.1734300107e-03    1.0080946094e+05
    6.1924448237e-03    1.0081481250e+05
    6.2115197070e-03    1.0082019531e+05
    6.2306127511e-03    1.0082580469e+05
    6.2497169711e-03    1.0083853906e+05
    6.2688281760e-03    1.0085518750e+05
    6.2879407778e-03    1.0086586719e+05
    6.3070552424e-03    1.0088286719e+05
    6.3261794858e-03    1.0088693750e+05
    6.3453060575e-03    1.0090546094e+05
    6.3644465990e-03    1.0092496094e+05
    6.3835908659e-03    1.0094983594e+05
    6.4027444459e-03    1.0097102344e+05
    6.4219115302e-03    1.0098141406e+05
    6.4410855994e-03    1.0100353906e+05
    6.4602680504e-03    1.0101696875e+05
    6.4794607460e-03    1.0103289844e+05
    6.4986641519e-03    1.0104769531e+05
    6.5178787336e-03    1.0105538281e+05
    6.5371058881e-03    1.0107039844e+05
    6.5563363023e-03    1.0107289844e+05
    6.5755699761e-03    1.0107396094e+05
    6.5948092379e-03    1.0106452344e+05
    6.6140629351e-03    1.0106283594e+05
    6.6333152354e-03    1.0106958594e+05
    6.6525745206e-03    1.0106671094e+05
    6.6718445159e-03    1.0106346094e+05
    6.6911154427e-03    1.0106878906e+05
    6.7104012705e-03    1.0106907031e+05
    6.7296870984e-03    1.0106896094e+05
    6.7489854991e-03    1.0107305469e+05
    6.7682852969e-03    1.0107667969e+05
    6.7875892855e-03    1.0107052344e+05
    6.8069072440e-03    1.0106353906e+05
    6.8262196146e-03    1.0106502344e+05
    6.8455408327e-03    1.0106392969e+05
    6.8648783490e-03    1.0105803906e+05
    6.8842126057e-03    1.0105908594e+05
    6.9035501219e-03    1.0106924219e+05
    6.9228983484e-03    1.0106103906e+05
    6.9422605447e-03    1.0105946094e+05
    6.9616222754e-03    1.0105867969e+05
    6.9809844717e-03    1.0105510156e+05
    7.0003494620e-03    1.0105232031e+05
    7.0197195746e-03    1.0105168750e+05
    7.0390999317e-03    1.0105002344e+05
    7.0584909990e-03    1.0104843750e+05
    7.0778946392e-03    1.0105146094e+05
    7.0973108523e-03    1.0105094531e+05
    7.1167377755e-03    1.0104916406e+05
    7.1361698210e-03    1.0104162500e+05
    7.1556069888e-03    1.0104791406e+05
    7.1750483476e-03    1.0104783594e+05
    7.1944966912e-03    1.0105052344e+05
    7.2139529511e-03    1.0105824219e+05
    7.2334166616e-03    1.0105941406e+05
    7.2528840974e-03    1.0106038281e+05
    7.2723543271e-03    1.0105852344e+05
    7.2918278165e-03    1.0105161719e+05
    7.3113050312e-03    1.0105152344e+05
    7.3307845742e-03    1.0106082031e+05
    7.3502692394e-03    1.0106185156e+05
    7.3697618209e-03    1.0106136719e+05
    7.3892641813e-03    1.0106824219e+05
    7.4087800458e-03    1.0107836719e+05
    7.4282912537e-03    1.0108482031e+05
    7.4477996677e-03    1.0109039844e+05
    7.4673094787e-03    1.0109805469e+05
    7.4868267402e-03    1.0112241406e+05
    7.5063589029e-03    1.0115819531e+05
    7.5258887373e-03    1.0121887500e+05
    7.5454111211e-03    1.0131224219e+05
    7.5649353676e-03    1.0147662500e+05
    7.5844703242e-03    1.0177958594e+05
    7.6040057465e-03    1.0234327344e+05
    7.6235276647e-03    1.0338972656e+05
    7.6430505142e-03    1.0528324219e+05
    7.6625877991e-03    1.0853716406e+05
    7.6821087860e-03    1.1371917969e+05
    7.7016241848e-03    1.2117791406e+05
    7.7211544849e-03    1.3075243750e+05
    7.7406810597e-03    1.4147456250e+05
    7.7602043748e-03    1.5174840625e+05
    7.7797495760e-03    1.5994946875e+05
    7.7992938459e-03    1.6512646875e+05
    7.8188432381e-03    1.6724478125e+05
    7.8384252265e-03    1.6700893750e+05
    7.8580006957e-03    1.6538567188e+05
    7.8775910661e-03    1.6326398438e+05
    7.8972103074e-03    1.6130412500e+05
    7.9168286175e-03    1.5972662500e+05
    7.9364804551e-03    1.5849368750e+05
    7.9561360180e-03    1.5742398438e+05
    7.9758102074e-03    1.5629910938e+05
    7.9955114052e-03    1.5496018750e+05
    8.0152126029e-03    1.5335328125e+05
    8.0349491909e-03    1.5151596875e+05
    8.0546662211e-03    1.4955296875e+05
    8.0743944272e-03    1.4757970312e+05
    8.0941170454e-03    1.4569129688e+05
    8.1138620153e-03    1.4393712500e+05
    8.1336386502e-03    1.4232362500e+05
    8.1534720957e-03    1.4083560938e+05
    8.1733558327e-03    1.3943662500e+05
    8.1932730973e-03    1.3809914062e+05
    8.2132071257e-03    1.3680889062e+05
    8.2330890000e-03    1.3555754688e+05
    8.2529615611e-03    1.3435207812e+05
    8.2727763802e-03    1.3319951562e+05
    8.2926023751e-03    1.3212220312e+05
    8.3124246448e-03    1.3110968750e+05
    8.3322748542e-03    1.3018859375e+05
    8.3521194756e-03    1.2934187500e+05
    8.3719678223e-03    1.2857403906e+05
    8.3917891607e-03    1.2785713281e+05
    8.4116021171e-03    1.2718258594e+05
    8.4314141423e-03    1.2653875781e+05
    8.4512168542e-03    1.2591796094e+05
    8.4710381925e-03    1.2532010156e+05
    8.4908353165e-03    1.2473911719e+05
    8.5106678307e-03    1.2418658594e+05
    8.5304882377e-03    1.2365582031e+05
    8.5503393784e-03    1.2314521094e+05
    8.5699046031e-03    1.2267568750e+05
    8.5892248899e-03    1.2221915625e+05
    8.6083402857e-03    1.2179813281e+05
    8.6272666231e-03    1.2138665625e+05
    8.6460309103e-03    1.2100136719e+05
    8.6646731943e-03    1.2063312500e+05
    8.6832325906e-03    1.2028782031e+05
    8.7017398328e-03    1.1996361719e+05
    8.7202098221e-03    1.1965247656e+05
    8.7386453524e-03    1.1935988281e+05
    8.7570473552e-03    1.1908875000e+05
    8.7753897533e-03    1.1883606250e+05
    8.7936492637e-03    1.1859650781e+05
    8.8118780404e-03    1.1836950000e+05
    8.8300397620e-03    1.1815816406e+05
    8.8481390849e-03    1.1794985156e+05
    8.8662039489e-03    1.1775377344e+05
    8.8842641562e-03    1.1755709375e+05
    8.9023411274e-03    1.1736533594e+05
    8.9204348624e-03    1.1717671094e+05
    8.9385388419e-03    1.1698503906e+05
    8.9566456154e-03    1.1679733594e+05
    8.9747514576e-03    1.1661971875e+05
    8.9928600937e-03    1.1643885156e+05
    9.0109808370e-03    1.1626734375e+05
    9.0291155502e-03    1.1610372656e+05
    9.0472688898e-03    1.1594831250e+05
    9.0654399246e-03    1.1580677344e+05
    9.0836230665e-03    1.1566283594e+05
    9.1018192470e-03    1.1552792969e+05
    9.1200266033e-03    1.1540061719e+05
    9.1382460669e-03    1.1528205469e+05
    9.1564757749e-03    1.1516588281e+05
    9.1747231781e-03    1.1506128906e+05
    9.1929892078e-03    1.1495727344e+05
    9.2112747952e-03    1.1485990625e+05
    9.2295790091e-03    1.1476660156e+05
    9.2479009181e-03    1.1468517969e+05
    9.2662386596e-03    1.1460646094e+05
    9.2845931649e-03    1.1453208594e+05
    9.3029672280e-03    1.1445246094e+05
    9.3213599175e-03    1.1437864844e+05
    9.3397712335e-03    1.1431244531e+05
    9.3582011759e-03    1.1424411719e+05
    9.3766497448e-03    1.1416896875e+05
    9.3951150775e-03    1.1409152344e+05
    9.4135999680e-03    1.1400278906e+05
    9.4321016222e-03    1.1390689844e+05
    9.4506228343e-03    1.1379953906e+05
    9.4691645354e-03    1.1368302344e+05
    9.4877239317e-03    1.1355614844e+05
    9.5063010231e-03    1.1342182031e+05
    9.5248948783e-03    1.1327937500e+05
    9.5435054973e-03    1.1312200000e+05
    9.5621328801e-03    1.1295560156e+05
    9.5807760954e-03    1.1278816406e+05
    9.5994332805e-03    1.1260164844e+05
    9.6181081608e-03    1.1241264844e+05
    9.6367979422e-03    1.1222321094e+05
    9.6555035561e-03    1.1202969531e+05
    9.6742231399e-03    1.1183677344e+05
    9.6929576248e-03    1.1165153125e+05
    9.7117051482e-03    1.1146622656e+05
    9.7304685041e-03    1.1129290625e+05
    9.7492448986e-03    1.1112865625e+05
    9.7680361941e-03    1.1097357031e+05
    9.7868405282e-03    1.1082669531e+05
    9.8056588322e-03    1.1069743750e+05
    9.8244920373e-03    1.1057366406e+05
    9.8433364183e-03    1.1046827344e+05
    9.8621929064e-03    1.1036214844e+05
    9.8810633644e-03    1.1026958594e+05
    9.8999459296e-03    1.1017928906e+05
    9.9188406020e-03    1.1009375781e+05
    9.9377483130e-03    1.1000691406e+05
    9.9566690624e-03    1.0993047656e+05
    9.9756028503e-03    1.0985915625e+05
    9.9945487455e-03    1.0978700000e+05
    1.0013507679e-02    1.0972078906e+05
    1.0032479651e-02    1.0965614844e+05
    1.0051463731e-02    1.0960696875e+05
    1.0070459917e-02    1.0956732031e+05
    1.0089469142e-02    1.0954389844e+05
    1.0108492337e-02    1.0953200781e+05
    1.0127528571e-02    1.0953141406e+05
    1.0146577843e-02    1.0954468750e+05
    1.0165639222e-02    1.0957150781e+05
    1.0184712708e-02    1.0960371875e+05
    1.0203798302e-02    1.0964372656e+05
    1.0222896002e-02    1.0969128906e+05
    1.0242006741e-02    1.0973774219e+05
    1.0261129588e-02    1.0978652344e+05
    1.0280264542e-02    1.0982678906e+05
    1.0299413465e-02    1.0985989844e+05
    1.0318575427e-02    1.0988284375e+05
    1.0337748565e-02    1.0989553906e+05
    1.0356934741e-02    1.0989400000e+05
    1.0376133956e-02    1.0989100781e+05
    1.0395346209e-02    1.0987111719e+05
    1.0414571501e-02    1.0984128906e+05
    1.0433809832e-02    1.0980564844e+05
    1.0453061201e-02    1.0975810156e+05
    1.0472324677e-02    1.0971014844e+05
    1.0491601191e-02    1.0965821094e+05
    1.0510892607e-02    1.0960842969e+05
    1.0530196130e-02    1.0956140625e+05
    1.0549513623e-02    1.0951324219e+05
    1.0568842292e-02    1.0947252344e+05
    1.0588183999e-02    1.0943642969e+05
    1.0607538745e-02    1.0940584375e+05
    1.0626907460e-02    1.0937452344e+05
    1.0646289214e-02    1.0935578906e+05
    1.0665684007e-02    1.0933213281e+05
    1.0685092770e-02    1.0932650781e+05
    1.0704516433e-02    1.0931284375e+05
    1.0723951273e-02    1.0930346094e+05
    1.0743400082e-02    1.0929690625e+05
    1.0762862861e-02    1.0927878906e+05
    1.0782338679e-02    1.0926211719e+05
    1.0801829398e-02    1.0923668750e+05
    1.0821334086e-02    1.0920699219e+05
    1.0840852745e-02    1.0916914844e+05
    1.0860386305e-02    1.0912424219e+05
    1.0879932903e-02    1.0907556250e+05
    1.0899493471e-02    1.0901908594e+05
    1.0919069871e-02    1.0894814844e+05
    1.0938662104e-02    1.0886832031e+05
    1.0958270170e-02    1.0878962500e+05
    1.0977892205e-02    1.0870199219e+05
    1.0997531936e-02    1.0860835156e+05
    1.1017187499e-02    1.0851800781e+05
    1.1036860757e-02    1.0841766406e+05
    1.1056551710e-02    1.0831460156e+05
    1.1076259427e-02    1.0821655469e+05
    1.1095987633e-02    1.0811784375e+05
    1.1115733534e-02    1.0801578906e+05
    1.1135498993e-02    1.0791860156e+05
    1.1155283079e-02    1.0782336719e+05
    1.1175086722e-02    1.0772660156e+05
    1.1194912717e-02    1.0763239844e+05
    1.1214758269e-02    1.0754696094e+05
    1.1234625243e-02    1.0745675000e+05
    1.1254511774e-02    1.0737516406e+05
    1.1274418794e-02    1.0729841406e+05
    1.1294347234e-02    1.0722524219e+05
    1.1314296164e-02    1.0715909375e+05
    1.1334266514e-02    1.0709117969e+05
    1.1354257353e-02    1.0702836719e+05
    1.1374268681e-02    1.0696196094e+05
    1.1394302361e-02    1.0689912500e+05
    1.1414355598e-02    1.0683375781e+05
    1.1434430256e-02    1.0676300781e+05
    1.1454525404e-02    1.0669755469e+05
    1.1474640109e-02    1.0662303906e+05
    1.1494777165e-02    1.0655869531e+05
    1.1514934711e-02    1.0649897656e+05
    1.1535113677e-02    1.0644230469e+05
    1.1555313133e-02    1.0637965625e+05
    1.1575534008e-02    1.0631800781e+05
    1.1595774442e-02    1.0625855469e+05
    1.1616035365e-02    1.0620471094e+05
    1.1636316776e-02    1.0614767969e+05
    1.1656619608e-02    1.0609503125e+05
    1.1676942930e-02    1.0604474219e+05
    1.1697287671e-02    1.0598677344e+05
    1.1717652902e-02    1.0592771094e+05
    1.1738038622e-02    1.0586447656e+05
    1.1758443899e-02    1.0580222656e+05
    1.1778870597e-02    1.0573533594e+05
    1.1799318716e-02    1.0567085156e+05
    1.1819788255e-02    1.0560441406e+05
    1.1840280145e-02    1.0554146875e+05
    1.1860790662e-02    1.0546864844e+05
    1.1881321669e-02    1.0539740625e+05
    1.1901874095e-02    1.0531746875e+05
    1.1922447011e-02    1.0522399219e+05
    1.1943042278e-02    1.0513759375e+05
    1.1963658035e-02    1.0503819531e+05
    1.1984295212e-02    1.0493900781e+05
    1.2004952878e-02    1.0484089844e+05
    1.2025631964e-02    1.0474627344e+05
    1.2046331540e-02    1.0466153906e+05
    1.2067052536e-02    1.0458408594e+05
    1.2087795883e-02    1.0451852344e+05
    1.2108558789e-02    1.0446364844e+05
    1.2129344046e-02    1.0442139844e+05
    1.2150149792e-02    1.0439146875e+05
    1.2170976959e-02    1.0436103125e+05
    1.2191825546e-02    1.0434796094e+05
    1.2212695554e-02    1.0432974219e+05
    1.2233586982e-02    1.0431964844e+05
    1.2254500762e-02    1.0431068750e+05
    1.2275436893e-02    1.0428847656e+05
    1.2296394445e-02    1.0426115625e+05
    1.2317374349e-02    1.0422714844e+05
    1.2338375673e-02    1.0419097656e+05
    1.2359398417e-02    1.0414496094e+05
    1.2380442582e-02    1.0409408594e+05
    1.2401508167e-02    1.0405219531e+05
    1.2422595173e-02    1.0401310156e+05
    1.2443703599e-02    1.0397802344e+05
    1.2464834377e-02    1.0393815625e+05
    1.2485986575e-02    1.0389958594e+05
    1.2507158332e-02    1.0385705469e+05
    1.2528351508e-02    1.0381936719e+05
    1.2549565174e-02    1.0378708594e+05
    1.2570801191e-02    1.0375856250e+05
    1.2592058629e-02    1.0373089844e+05
    1.2613337487e-02    1.0369803906e+05
    1.2634636834e-02    1.0367028906e+05
    1.2655957602e-02    1.0363378906e+05
    1.2677297927e-02    1.0360383594e+05
    1.2698660605e-02    1.0357440625e+05
    1.2720043771e-02    1.0354547656e+05
    1.2741449289e-02    1.0351810156e+05
    1.2762876227e-02    1.0347953906e+05
    1.2784325518e-02    1.0345310156e+05
    1.2805794366e-02    1.0342500000e+05
    1.2827285565e-02    1.0340249219e+05
    1.2848797254e-02    1.0338521875e+05
    1.2870330364e-02    1.0335671875e+05
    1.2891885825e-02    1.0332349219e+05
    1.2913462706e-02    1.0328464844e+05
    1.2935061008e-02    1.0324596094e+05
    1.2956679799e-02    1.0320597656e+05
    1.2978320010e-02    1.0315980469e+05
    1.2999981642e-02    1.0311502344e+05
    1.3021663763e-02    1.0307397656e+05
    1.3043368235e-02    1.0303775000e+05
    1.3065092266e-02    1.0301403125e+05
    1.3086837716e-02    1.0300558594e+05
    1.3108605519e-02    1.0301700000e+05
    1.3130392879e-02    1.0306358594e+05
    1.3152201660e-02    1.0315521875e+05
    1.3174032792e-02    1.0330827344e+05
    1.3195885345e-02    1.0353152344e+05
    1.3217759319e-02    1.0383990625e+05
    1.3239653781e-02    1.0425952344e+05
    1.3261569664e-02    1.0480013281e+05
    1.3283506967e-02    1.0547369531e+05
    1.3305463828e-02    1.0628034375e+05
    1.3327440247e-02    1.0720766406e+05
    1.3349435292e-02    1.0820927344e+05
    1.3371448033e-02    1.0923643750e+05
    1.3393475674e-02    1.1020121094e+05
    1.3415516354e-02    1.1104710156e+05
    1.3437564485e-02    1.1169899219e+05
    1.3459613547e-02    1.1212071875e+05
    1.3481658883e-02    1.1228446875e+05
    1.3503690250e-02    1.1219960156e+05
    1.3525702059e-02    1.1189514844e+05
    1.3547683135e-02    1.1140425000e+05
    1.3569628820e-02    1.1078946875e+05
    1.3591531664e-02    1.1008907031e+05
    1.3613392599e-02    1.0935925000e+05
    1.3635210693e-02    1.0866289844e+05
    1.3656994328e-02    1.0804489844e+05
    1.3678749092e-02    1.0751480469e+05
    1.3700488023e-02    1.0709969531e+05
    1.3722228818e-02    1.0676994531e+05
    1.3743981719e-02    1.0650253125e+05
    1.3765762560e-02    1.0626662500e+05
    1.3787578791e-02    1.0601564844e+05
    1.3809437864e-02    1.0572580469e+05
    1.3831341639e-02    1.0539091406e+05
    1.3853288256e-02    1.0499365625e+05
    1.3875273056e-02    1.0455160156e+05
    1.3897285797e-02    1.0406284375e+05
    1.3919321820e-02    1.0355922656e+05
    1.3941374607e-02    1.0306721875e+05
    1.3963440433e-02    1.0260036719e+05
    1.3985517435e-02    1.0219078906e+05
    1.4007603750e-02    1.0184365625e+05
    1.4029704034e-02    1.0157086719e+05
    1.4051820152e-02    1.0136605469e+05
    1.4073957689e-02    1.0122050000e+05
    1.4096121304e-02    1.0113677344e+05
    1.4118315652e-02    1.0108768750e+05
    1.4140545391e-02    1.0107181250e+05
    1.4162814245e-02    1.0107891406e+05
    1.4185124077e-02    1.0109415625e+05
    1.4207473956e-02    1.0111221094e+05
    1.4229862019e-02    1.0112602344e+05
    1.4252286404e-02    1.0113475000e+05
    1.4274741523e-02    1.0113352344e+05
    1.4297228307e-02    1.0112464844e+05
    1.4319745824e-02    1.0111250000e+05
    1.4342290349e-02    1.0109172656e+05
    1.4364863746e-02    1.0106432031e+05
    1.4387467876e-02    1.0103959375e+05
    1.4410103671e-02    1.0101725781e+05
    1.4432771131e-02    1.0099980469e+05
    1.4455472119e-02    1.0099639844e+05
    1.4478209428e-02    1.0099381250e+05
    1.4500979334e-02    1.0099455469e+05
    1.4523783699e-02    1.0100622656e+05
    1.4546621591e-02    1.0102580469e+05
    1.4569494873e-02    1.0105978125e+05
    1.4592399821e-02    1.0110678906e+05
    1.4615339227e-02    1.0117453125e+05
    1.4638305642e-02    1.0125746875e+05
    1.4661304653e-02    1.0134647656e+05
    1.4684336260e-02    1.0144177344e+05
    1.4707398601e-02    1.0153094531e+05
    1.4730494469e-02    1.0161671094e+05
    1.4753622934e-02    1.0169246094e+05
    1.4776783995e-02    1.0174791406e+05
    1.4799979515e-02    1.0178265625e+05
    1.4823205769e-02    1.0180231250e+05
    1.4846466482e-02    1.0181389844e+05
    1.4869757928e-02    1.0182892969e+05
    1.4893081971e-02    1.0185059375e+05
    1.4916437678e-02    1.0187147656e+05
    1.4939822257e-02    1.0189777344e+05
    1.4963239431e-02    1.0192122656e+05
    1.4986685477e-02    1.0194866406e+05
    1.5010161325e-02    1.0196822656e+05
    1.5033668838e-02    1.0197946875e+05
    1.5057205223e-02    1.0196883594e+05
    1.5080772340e-02    1.0195250781e+05
    1.5104367398e-02    1.0191771875e+05
    1.5127992257e-02    1.0187062500e+05
    1.5151646920e-02    1.0180525000e+05
    1.5175330453e-02    1.0173303906e+05
    1.5199041925e-02    1.0166199219e+05
    1.5222782269e-02    1.0159575781e+05
    1.5246548690e-02    1.0153141406e+05
    1.5270343982e-02    1.0147003906e+05
    1.5294168144e-02    1.0140750000e+05
    1.5318016522e-02    1.0135139844e+05
    1.5341891907e-02    1.0130385156e+05
    1.5365792438e-02    1.0126021875e+05
    1.5389721841e-02    1.0122885156e+05
    1.5413676389e-02    1.0120346094e+05
    1.5437657945e-02    1.0117944531e+05
    1.5461664647e-02    1.0117091406e+05
    1.5485695563e-02    1.0117391406e+05
    1.5509752557e-02    1.0118208594e+05
    1.5533835627e-02    1.0119749219e+05
    1.5557944775e-02    1.0121984375e+05
    1.5582079068e-02    1.0124327344e+05
    1.5606240369e-02    1.0126758594e+05
    1.5630424023e-02    1.0129225781e+05
    1.5654634684e-02    1.0132117969e+05
    1.5678871423e-02    1.0134403125e+05
    1.5703132376e-02    1.0136977344e+05
    1.5727419406e-02    1.0139257031e+05
    1.5751728788e-02    1.0141924219e+05
    1.5776060522e-02    1.0144543750e+05
    1.5800418332e-02    1.0147796094e+05
    1.5824800357e-02    1.0150871094e+05
    1.5849204734e-02    1.0153583594e+05
    1.5873633325e-02    1.0156921094e+05
    1.5898084268e-02    1.0159164844e+05
    1.5922557563e-02    1.0160893750e+05
    1.5947058797e-02    1.0162000781e+05
    1.5971582383e-02    1.0162046094e+05
    1.5996130183e-02    1.0160835156e+05
    1.6020702198e-02    1.0158046094e+05
    1.6045298427e-02    1.0155168750e+05
    1.6069920734e-02    1.0150905469e+05
    1.6094569117e-02    1.0145585156e+05
    1.6119243577e-02    1.0139990625e+05
    1.6143942252e-02    1.0133355469e+05
    1.6168667004e-02    1.0125981250e+05
    1.6193419695e-02    1.0118350781e+05
    1.6218200326e-02    1.0110725781e+05
    1.6243007034e-02    1.0103719531e+05
    1.6267839819e-02    1.0096103906e+05
    1.6292702407e-02    1.0088786719e+05
    1.6317596659e-02    1.0080930469e+05
    1.6342513263e-02    1.0074110156e+05
    1.6367461532e-02    1.0068910156e+05
    1.6392435879e-02    1.0064207031e+05
    1.6417443752e-02    1.0059449219e+05
    1.6442479566e-02    1.0055216406e+05
    1.6467543319e-02    1.0052139844e+05
    1.6492636874e-02    1.0049641406e+05
    1.6517756507e-02    1.0047896094e+05
    1.6542907804e-02    1.0046202344e+05
    1.6568088904e-02    1.0044655469e+05
    1.6593271866e-02    1.0043612500e+05
    1.6618426889e-02    1.0042885156e+05
    1.6643559560e-02    1.0043050000e+05
    1.6668669879e-02    1.0043360156e+05
    1.6693757847e-02    1.0043057031e+05
    1.6718825325e-02    1.0041462500e+05
    1.6743874177e-02    1.0039790625e+05
    1.6768900678e-02    1.0037358594e+05
    1.6793908551e-02    1.0035977344e+05
    1.6818899661e-02    1.0033832031e+05
    1.6843874007e-02    1.0031327344e+05
    1.6868829727e-02    1.0028530469e+05
    1.6893770546e-02    1.0025905469e+05
    1.6918692738e-02    1.0022977344e+05
    1.6943598166e-02    1.0020246094e+05
    1.6968490556e-02    1.0017841406e+05
    1.6993366182e-02    1.0014980469e+05
    1.7018226907e-02    1.0012700000e+05
    1.7043072730e-02    1.0010464844e+05
    1.7067901790e-02    1.0009193750e+05
    1.7092714086e-02    1.0007796094e+05
    1.7117511481e-02    1.0006777344e+05
    1.7142292112e-02    1.0006489844e+05
    1.7167057842e-02    1.0006303906e+05
    1.7191808671e-02    1.0006700000e+05
    1.7216544598e-02    1.0008033594e+05
    1.7241263762e-02    1.0009296094e+05
    1.7265968025e-02    1.0011058594e+05
    1.7290659249e-02    1.0012981250e+05
    1.7315333709e-02    1.0015077344e+05
    1.7339993268e-02    1.0016210156e+05
    1.7364639789e-02    1.0018157031e+05
    1.7389267683e-02    1.0020131250e+05
    1.7413880676e-02    1.0022252344e+05
    1.7438478768e-02    1.0023689844e+05
    1.7463061959e-02    1.0024355469e+05
    1.7487626523e-02    1.0025813281e+05
    1.7512176186e-02    1.0026566406e+05
    1.7536709085e-02    1.0027653906e+05
    1.7561223358e-02    1.0028277344e+05
    1.7585720867e-02    1.0028535156e+05
    1.7610201612e-02    1.0028885156e+05
    1.7634663731e-02    1.0029572656e+05
    1.7659107223e-02    1.0030266406e+05
    1.7683532089e-02    1.0030910156e+05
    1.7707940191e-02    1.0031064844e+05
    1.7732329667e-02    1.0031522656e+05
    1.7756698653e-02    1.0032116406e+05
    1.7781050876e-02    1.0032972656e+05
    1.7805384472e-02    1.0033149219e+05
    1.7829699442e-02    1.0033747656e+05
    1.7853999510e-02    1.0033294531e+05
    1.7878280953e-02    1.0033715625e+05
    1.7902545631e-02    1.0033660156e+05
    1.7926793545e-02    1.0033632031e+05
    1.7951028422e-02    1.0033844531e+05
    1.7975246534e-02    1.0033863281e+05
    1.7999447882e-02    1.0033950000e+05
    1.8023636192e-02    1.0034814844e+05
    1.8047811463e-02    1.0035578906e+05
    1.8071975559e-02    1.0036386719e+05
    1.8096126616e-02    1.0037335156e+05
    1.8120266497e-02    1.0038789844e+05
    1.8144397065e-02    1.0040160156e+05
    1.8168520182e-02    1.0040985156e+05
    1.8192630261e-02    1.0042357031e+05
    1.8216732889e-02    1.0042997656e+05
    1.8240824342e-02    1.0043394531e+05
    1.8264908344e-02    1.0043635156e+05
    1.8288983032e-02    1.0043309375e+05
    1.8313048407e-02    1.0043183594e+05
    1.8337102607e-02    1.0043003906e+05
    1.8361147493e-02    1.0041993750e+05
    1.8385183066e-02    1.0040934375e+05
    1.8409207463e-02    1.0040400000e+05
    1.8433224410e-02    1.0040087500e+05
    1.8457230181e-02    1.0040033594e+05
    1.8481226638e-02    1.0040403906e+05
    1.8505210057e-02    1.0041296094e+05
    1.8529184163e-02    1.0043147656e+05
    1.8553148955e-02    1.0045753906e+05
    1.8577100709e-02    1.0049064844e+05
    1.8601041287e-02    1.0053150000e+05
    1.8624972552e-02    1.0058033594e+05
    1.8648892641e-02    1.0063546875e+05
    1.8672801554e-02    1.0069841406e+05
    1.8696699291e-02    1.0077285156e+05
    1.8720587716e-02    1.0085221875e+05
    1.8744463101e-02    1.0092615625e+05
    1.8768329173e-02    1.0101232031e+05
    1.8792184070e-02    1.0110152344e+05
    1.8816027790e-02    1.0119355469e+05
    1.8839860335e-02    1.0128657031e+05
    1.8863683566e-02    1.0139086719e+05
    1.8887493759e-02    1.0149611719e+05
    1.8911294639e-02    1.0160810156e+05
    1.8935086206e-02    1.0173388281e+05
    1.8958866596e-02    1.0186721875e+05
    1.8982635811e-02    1.0200690625e+05
    1.9006397575e-02    1.0215675000e+05
    1.9030146301e-02    1.0231477344e+05
    1.9053885713e-02    1.0248271875e+05
    1.9077615812e-02    1.0266093750e+05
    1.9101334736e-02    1.0284491406e+05
    1.9125042483e-02    1.0303038281e+05
    1.9148740917e-02    1.0320711719e+05
    1.9172428176e-02    1.0337035156e+05
    1.9196104258e-02    1.0351794531e+05
    1.9219771028e-02    1.0364557031e+05
    1.9243424758e-02    1.0373825000e+05
    1.9267069176e-02    1.0380497656e+05
    1.9290700555e-02    1.0382597656e+05
    1.9314322621e-02    1.0381505469e+05
    1.9337931648e-02    1.0376987500e+05
    1.9361529499e-02    1.0368064844e+05
    1.9385114312e-02    1.0356756250e+05
    1.9408687949e-02    1.0341675000e+05
    1.9432250410e-02    1.0323336719e+05
    1.9455801696e-02    1.0301760156e+05
    1.9479339942e-02    1.0278688281e+05
    1.9502865151e-02    1.0255300000e+05
    1.9526379183e-02    1.0230914844e+05
    1.9549878314e-02    1.0207384375e+05
    1.9573366269e-02    1.0185383594e+05
    1.9596841186e-02    1.0165744531e+05
    1.9620303065e-02    1.0150108594e+05
    1.9643751904e-02    1.0137436719e+05
    1.9667187706e-02    1.0128528906e+05
    1.9690606743e-02    1.0122360156e+05
    1.9714014605e-02    1.0117708594e+05
    1.9737409428e-02    1.0115110156e+05
    1.9760791212e-02    1.0113475781e+05
    1.9784159958e-02    1.0113174219e+05
    1.9807513803e-02    1.0113653125e+05
    1.9830854610e-02    1.0115491406e+05
    1.9854182377e-02    1.0117941406e+05
    1.9877497107e-02    1.0119789844e+05
    1.9900798798e-02    1.0121625000e+05
    1.9924087450e-02    1.0123465625e+05
    1.9947361201e-02    1.0125464844e+05
    1.9970623776e-02    1.0127091406e+05
    1.9993871450e-02    1.0128340625e+05
    2.0017107949e-02    1.0130680469e+05
    2.0040329546e-02    1.0132946875e+05
    2.0063538104e-02    1.0135112500e+05
    2.0086731762e-02    1.0137227344e+05
    2.0109914243e-02    1.0139860156e+05
    2.0133081824e-02    1.0142312500e+05
    2.0156236365e-02    1.0145449219e+05
    2.0179376006e-02    1.0149191406e+05
    2.0202504471e-02    1.0153958594e+05
    2.0225618035e-02    1.0159433594e+05
    2.0248720422e-02    1.0165539844e+05
    2.0271807909e-02    1.0171909375e+05
    2.0294882357e-02    1.0178761719e+05
    2.0317947492e-02    1.0185949219e+05
    2.0340997726e-02    1.0193003906e+05
    2.0364036784e-02    1.0200527344e+05
    2.0387060940e-02    1.0207935156e+05
    2.0410073921e-02    1.0214691406e+05
    2.0433073863e-02    1.0221528125e+05
    2.0456060767e-02    1.0227475781e+05
    2.0479036495e-02    1.0232993750e+05
    2.0501999184e-02    1.0237965625e+05
    2.0524948835e-02    1.0242086719e+05
    2.0547885448e-02    1.0245316406e+05
    2.0570809022e-02    1.0248678906e+05
    2.0593719557e-02    1.0251828125e+05
    2.0616617054e-02    1.0254800781e+05
    2.0639499649e-02    1.0256796094e+05
    2.0662369207e-02    1.0258258594e+05
    2.0685223863e-02    1.0259771094e+05
    2.0708063617e-02    1.0260856250e+05
    2.0730890334e-02    1.0261614844e+05
    2.0753700286e-02    1.0262316406e+05
    2.0776495337e-02    1.0262710156e+05
    2.0799275488e-02    1.0263287500e+05
    2.0822042599e-02    1.0262538281e+05
    2.0844791085e-02    1.0262678906e+05
    2.0867524669e-02    1.0262353906e+05
    2.0890241489e-02    1.0261325781e+05
    2.0912945271e-02    1.0261403906e+05
    2.0935632288e-02    1.0261302344e+05
    2.0958306268e-02    1.0260803906e+05
    2.0980965346e-02    1.0259987500e+05
    2.1003607661e-02    1.0258155469e+05
    2.1026238799e-02    1.0256657031e+05
    2.1048855036e-02    1.0255289844e+05
    2.1071458235e-02    1.0252975781e+05
    2.1094048396e-02    1.0250059375e+05
    2.1116625518e-02    1.0246513281e+05
    2.1139191464e-02    1.0243094531e+05
    2.1161744371e-02    1.0238439844e+05
    2.1184286103e-02    1.0233333594e+05
    2.1206818521e-02    1.0227935156e+05
    2.1229337901e-02    1.0222596094e+05
    2.1251846105e-02    1.0216984375e+05
    2.1274344996e-02    1.0210828906e+05
    2.1296832711e-02    1.0205235156e+05
    2.1319312975e-02    1.0200028906e+05
    2.1341778338e-02    1.0195388281e+05
    2.1364232525e-02    1.0191124219e+05
    2.1386675537e-02    1.0186609375e+05
    2.1409107372e-02    1.0183802344e+05
    2.1431528032e-02    1.0180221875e+05
    2.1453931928e-02    1.0178068750e+05
    2.1476324648e-02    1.0176790625e+05
    2.1498700604e-02    1.0175152344e+05
    2.1521063522e-02    1.0174424219e+05
    2.1543409675e-02    1.0174146875e+05
    2.1565740928e-02    1.0174571094e+05
    2.1588053554e-02    1.0175350000e+05
    2.1610351279e-02    1.0175636719e+05
    2.1632634103e-02    1.0176503906e+05
    2.1654898301e-02    1.0176813281e+05
    2.1677147597e-02    1.0177014844e+05
    2.1699378267e-02    1.0177552344e+05
    2.1721594036e-02    1.0177647656e+05
    2.1743793041e-02    1.0178302344e+05
    2.1765975282e-02    1.0178342969e+05
    2.1788140759e-02    1.0178865625e+05
    2.1810289472e-02    1.0178256250e+05
    2.1832419559e-02    1.0178164844e+05
    2.1854531020e-02    1.0177884375e+05
    2.1876627579e-02    1.0177882031e+05
    2.1898705512e-02    1.0177941406e+05
    2.1920768544e-02    1.0177450000e+05
    2.1942811087e-02    1.0177212500e+05
    2.1964838728e-02    1.0176997656e+05
    2.1986849606e-02    1.0177300781e+05
    2.2008845583e-02    1.0177514844e+05
    2.2030822933e-02    1.0177191406e+05
    2.2052785382e-02    1.0177124219e+05
    2.2074732929e-02    1.0177180469e+05
    2.2096665576e-02    1.0177188281e+05
    2.2118583322e-02    1.0177822656e+05
    2.2140489891e-02    1.0178402344e+05
    2.2162377834e-02    1.0178685156e+05
    2.2184254602e-02    1.0178992969e+05
    2.2206118330e-02    1.0178165625e+05
    2.2227969021e-02    1.0178697656e+05
    2.2249806672e-02    1.0179135156e+05
    2.2271629423e-02    1.0178387500e+05
    2.2293440998e-02    1.0178017969e+05
    2.2315241396e-02    1.0177566406e+05
    2.2337028757e-02    1.0175877344e+05
    2.2358803079e-02    1.0174655469e+05
    2.2380566224e-02    1.0173421094e+05
    2.2402318195e-02    1.0171528125e+05
    2.2424057126e-02    1.0170553125e+05
    2.2445784882e-02    1.0168337500e+05
    2.2467501462e-02    1.0167052344e+05
    2.2489206865e-02    1.0164400781e+05
    2.2510899231e-02    1.0163028125e+05
    2.2532582283e-02    1.0160639844e+05
    2.2554252297e-02    1.0158882031e+05
    2.2575911134e-02    1.0157169531e+05
    2.2597560659e-02    1.0155810156e+05
    2.2619199008e-02    1.0155396094e+05
    2.2640828043e-02    1.0154474219e+05
    2.2662445903e-02    1.0153617969e+05
    2.2684050724e-02    1.0153291406e+05
    2.2705646232e-02    1.0153008594e+05
    2.2727232426e-02    1.0152321094e+05
    2.2748809308e-02    1.0151533594e+05
    2.2770375013e-02    1.0150786719e+05
    2.2791929543e-02    1.0150462500e+05
    2.2813472897e-02    1.0150703906e+05
    2.2835006937e-02    1.0150950781e+05
    2.2856531665e-02    1.0150825000e+05
    2.2878047079e-02    1.0151547656e+05
    2.2899549454e-02    1.0151283594e+05
    2.2921044379e-02    1.0151297656e+05
    2.2942528129e-02    1.0151478906e+05
    2.2964000702e-02    1.0151710156e+05
    2.2985465825e-02    1.0151942969e+05
    2.3006917909e-02    1.0151758594e+05
    2.3028360680e-02    1.0151360156e+05
    2.3049792275e-02    1.0151321094e+05
    2.3071214557e-02    1.0151656250e+05
    2.3092625663e-02    1.0151752344e+05
    2.3114029318e-02    1.0151511719e+05
    2.3135419935e-02    1.0151363281e+05
    2.3156799376e-02    1.0151096094e+05
    2.3178169504e-02    1.0151052344e+05
    2.3199530318e-02    1.0150896094e+05
    2.3220879957e-02    1.0150982031e+05
    2.3242218420e-02    1.0150646094e+05
    2.3263547570e-02    1.0150752344e+05
    2.3284865543e-02    1.0150500000e+05
    2.3306174204e-02    1.0150466406e+05
    2.3327469826e-02    1.0150336719e+05
    2.3348756135e-02    1.0150466406e+05
    2.3370031267e-02    1.0150633594e+05
    2.3391297087e-02    1.0150834375e+05
    2.3412553594e-02    1.0150614844e+05
    2.3433798924e-02    1.0151117969e+05
    2.3455033079e-02    1.0151416406e+05
    2.3476256058e-02    1.0151628906e+05
    2.3497469723e-02    1.0151522656e+05
    2.3518672213e-02    1.0151528125e+05
    2.3539865389e-02    1.0151878906e+05
    2.3561049253e-02    1.0152250781e+05
    2.3582221940e-02    1.0152630469e+05
    2.3603385314e-02    1.0153003906e+05
    2.3624535650e-02    1.0152944531e+05
    2.3645676672e-02    1.0152983594e+05
    2.3666808382e-02    1.0153146875e+05
    2.3687927052e-02    1.0153325000e+05
    2.3709038273e-02    1.0153581250e+05
    2.3730138317e-02    1.0153586719e+05
    2.3751227185e-02    1.0153547656e+05
    2.3772306740e-02    1.0153366406e+05
    2.3793375120e-02    1.0152775000e+05
    2.3814432323e-02    1.0152143750e+05
    2.3835480213e-02    1.0150728906e+05
    2.3856516927e-02    1.0150275000e+05
    2.3877544329e-02    1.0150021875e+05
    2.3898560554e-02    1.0149777344e+05
    2.3919565603e-02    1.0149671094e+05
    2.3940561339e-02    1.0149584375e+05
    2.3961545900e-02    1.0148771094e+05
    2.3982519284e-02    1.0148296094e+05
    2.4003483355e-02    1.0147914844e+05
    2.4024436250e-02    1.0147616406e+05
    2.4045377970e-02    1.0147444531e+05
    2.4066310376e-02    1.0147169531e+05
    2.4087233469e-02    1.0147025781e+05
    2.4108145386e-02    1.0147008594e+05
    2.4129044265e-02    1.0146762500e+05
    2.4149935693e-02    1.0146624219e+05
    2.4170814082e-02    1.0146361719e+05
    2.4191683158e-02    1.0145871094e+05
    2.4212542921e-02    1.0146278906e+05
    2.4233391508e-02    1.0145902344e+05
    2.4254228920e-02    1.0145083594e+05
    2.4275057018e-02    1.0144858594e+05
    2.4295873940e-02    1.0145814844e+05
    2.4316681549e-02    1.0145785156e+05
    2.4337477982e-02    1.0145896094e+05
    2.4358265102e-02    1.0145896875e+05
    2.4379042909e-02    1.0145467969e+05
    2.4399809539e-02    1.0145702344e+05
    2.4420566857e-02    1.0145830469e+05
    2.4441312999e-02    1.0145749219e+05
    2.4462047964e-02    1.0145688281e+05
    2.4482775480e-02    1.0145636719e+05
    2.4503491819e-02    1.0145608594e+05
    2.4524198845e-02    1.0146066406e+05
    2.4544894695e-02    1.0145853906e+05
    2.4565581232e-02    1.0146446094e+05
    2.4586258456e-02    1.0146596875e+05
    2.4606924504e-02    1.0146633594e+05
    2.4627581239e-02    1.0146675781e+05
    2.4648228660e-02    1.0146517969e+05
    2.4668866768e-02    1.0147550000e+05
    2.4689495564e-02    1.0147710156e+05
    2.4710113183e-02    1.0148603906e+05
    2.4730721489e-02    1.0148868750e+05
    2.4751318619e-02    1.0150103906e+05
    2.4771906435e-02    1.0150716406e+05
    2.4792486802e-02    1.0151846875e+05
    2.4813055992e-02    1.0152578906e+05
    2.4833614007e-02    1.0153786719e+05
    2.4854162708e-02    1.0154608594e+05
    2.4874702096e-02    1.0155690625e+05
    2.4895232171e-02    1.0157203125e+05
    2.4915752932e-02    1.0158785156e+05
    2.4936262518e-02    1.0159837500e+05
    2.4956764653e-02    1.0160677344e+05
    2.4977253750e-02    1.0161521094e+05
    2.4997735396e-02    1.0162239844e+05
    2.5018205866e-02    1.0163284375e+05
    2.5038668886e-02    1.0163996094e+05
    2.5059120730e-02    1.0164450781e+05
    2.5079563260e-02    1.0165074219e+05
    2.5099996477e-02    1.0164928125e+05
    2.5120420381e-02    1.0164439844e+05
    2.5140833110e-02    1.0163225781e+05
    2.5161236525e-02    1.0162767969e+05
    2.5181630626e-02    1.0160772656e+05
    2.5202017277e-02    1.0159046094e+05
    2.5222390890e-02    1.0157375781e+05
    2.5242757052e-02    1.0154785156e+05
    2.5263112038e-02    1.0151541406e+05
    2.5283459574e-02    1.0148750000e+05
    2.5303795934e-02    1.0145514844e+05
    2.5324124843e-02    1.0142067969e+05
    2.5344440714e-02    1.0138972656e+05
    2.5364749134e-02    1.0135366406e+05
    2.5385048240e-02    1.0132067969e+05
    2.5405339897e-02    1.0128514844e+05
    2.5425618514e-02    1.0125234375e+05
    2.5445887819e-02    1.0123096094e+05
    2.5466147810e-02    1.0121813281e+05
    2.5486400351e-02    1.0121133594e+05
    2.5506639853e-02    1.0121435156e+05
    2.5526873767e-02    1.0121849219e+05
    2.5547094643e-02    1.0123328906e+05
    2.5567308068e-02    1.0124774219e+05
    2.5587510318e-02    1.0126864844e+05
    2.5607703254e-02    1.0129511719e+05
    2.5627886876e-02    1.0132266406e+05
    2.5648061186e-02    1.0135334375e+05
    2.5668226182e-02    1.0138686719e+05
    2.5688380003e-02    1.0141933594e+05
    2.5708526373e-02    1.0144450781e+05
    2.5728661567e-02    1.0147371875e+05
    2.5748789310e-02    1.0150075781e+05
    2.5768904015e-02    1.0153044531e+05
    2.5789011270e-02    1.0155778906e+05
    2.5809109211e-02    1.0157547656e+05
    2.5829195976e-02    1.0159587500e+05
    2.5849273428e-02    1.0161031250e+05
    2.5869343430e-02    1.0162574219e+05
    2.5889402255e-02    1.0164212500e+05
    2.5909451768e-02    1.0165928906e+05
    2.5929493830e-02    1.0167044531e+05
    2.5949522853e-02    1.0168853906e+05
    2.5969544426e-02    1.0170000781e+05
    2.5989556685e-02    1.0171574219e+05
    2.6009559631e-02    1.0173258594e+05
    2.6029553264e-02    1.0174710156e+05
    2.6049537584e-02    1.0176277344e+05
    2.6069512591e-02    1.0177814844e+05
    2.6089478284e-02    1.0179571875e+05
    2.6109432802e-02    1.0180980469e+05
    2.6129379869e-02    1.0182592969e+05
    2.6149315760e-02    1.0183582031e+05
    2.6169244200e-02    1.0184336719e+05
    2.6189163327e-02    1.0185703906e+05
    2.6209073141e-02    1.0186089844e+05
    2.6228975505e-02    1.0186385156e+05
    2.6248866692e-02    1.0187271875e+05
    2.6268748567e-02    1.0187485156e+05
    2.6288621128e-02    1.0187243750e+05
    2.6308484375e-02    1.0187128906e+05
    2.6328338310e-02    1.0186796875e+05
    2.6348184794e-02    1.0186911719e+05
    2.6368021965e-02    1.0186234375e+05
    2.6387847960e-02    1.0185465625e+05
    2.6407664642e-02    1.0184830469e+05
    2.6427472010e-02    1.0184127344e+05
    2.6447271928e-02    1.0184053125e+05
    2.6467062533e-02    1.0184139844e+05
    2.6486843824e-02    1.0183460156e+05
    2.6506617665e-02    1.0182977344e+05
    2.6526380330e-02    1.0182422656e+05
    2.6546133682e-02    1.0181746094e+05
    2.6565877721e-02    1.0181389844e+05
    2.6585612446e-02    1.0181902344e+05
    2.6605339721e-02    1.0181839844e+05
    2.6625057682e-02    1.0182021875e+05
    2.6644766331e-02    1.0181975781e+05
    2.6664465666e-02    1.0182158594e+05
    2.6684155688e-02    1.0182114844e+05
    2.6703836396e-02    1.0182062500e+05
    2.6723509654e-02    1.0182033594e+05
    2.6743173599e-02    1.0182494531e+05
    2.6762828231e-02    1.0182716406e+05
    2.6782475412e-02    1.0181553906e+05
    2.6802113280e-02    1.0181733594e+05
    2.6821739972e-02    1.0181213281e+05
    2.6841359213e-02    1.0181221094e+05
    2.6860967278e-02    1.0180621875e+05
    2.6880569756e-02    1.0180121094e+05
    2.6900164783e-02    1.0179686719e+05
    2.6919748634e-02    1.0178939844e+05
    2.6939325035e-02    1.0177793750e+05
    2.6958892122e-02    1.0176328125e+05
    2.6978449896e-02    1.0175827344e+05
    2.6997998357e-02    1.0174000781e+05
    2.7017539367e-02    1.0173246094e+05
    2.7037071064e-02    1.0171746094e+05
    2.7056595311e-02    1.0170486719e+05
    2.7076110244e-02    1.0168372656e+05
    2.7095617726e-02    1.0167477344e+05
    2.7115115896e-02    1.0166335156e+05
    2.7134604752e-02    1.0165182031e+05
    2.7154086158e-02    1.0164502344e+05
    2.7173558250e-02    1.0163366406e+05
    2.7193021029e-02    1.0162793750e+05
    2.7212476358e-02    1.0161914844e+05
    2.7231922373e-02    1.0161862500e+05
    2.7251357213e-02    1.0161285156e+05
    2.7270786464e-02    1.0160759375e+05
    2.7290204540e-02    1.0160758594e+05
    2.7309613302e-02    1.0160850781e+05
    2.7329014614e-02    1.0161269531e+05
    2.7348404750e-02    1.0161674219e+05
    2.7367785573e-02    1.0161942969e+05
    2.7387158945e-02    1.0162621875e+05
    2.7406521142e-02    1.0162664844e+05
    2.7425874025e-02    1.0163199219e+05
    2.7445219457e-02    1.0163572656e+05
    2.7464553714e-02    1.0164225000e+05
    2.7483878657e-02    1.0164727344e+05
    2.7503194287e-02    1.0165742969e+05
    2.7522502467e-02    1.0166367969e+05
    2.7541799471e-02    1.0166959375e+05
    2.7561087161e-02    1.0167341406e+05
    2.7580365539e-02    1.0167630469e+05
    2.7599634603e-02    1.0169082031e+05
    2.7618894354e-02    1.0169389844e+05
    2.7638144791e-02    1.0169235156e+05
    2.7657385916e-02    1.0169061719e+05
    2.7676619589e-02    1.0169597656e+05
    2.7695843950e-02    1.0170588281e+05
    2.7715058997e-02    1.0170921094e+05
    2.7734262869e-02    1.0171271094e+05
    2.7753459290e-02    1.0171637500e+05
    2.7772648260e-02    1.0172041406e+05
    2.7791827917e-02    1.0173632031e+05
    2.7810998261e-02    1.0173617969e+05
    2.7830159292e-02    1.0173590625e+05
    2.7849311009e-02    1.0174014844e+05
    2.7868455276e-02    1.0175353906e+05
    2.7887590230e-02    1.0175800781e+05
    2.7906717733e-02    1.0176250781e+05
    2.7925835922e-02    1.0176458594e+05
    2.7944946662e-02    1.0176810156e+05
    2.7964048088e-02    1.0177171875e+05
    2.7983140200e-02    1.0178349219e+05
    2.8002224863e-02    1.0178610156e+05
    2.8021300212e-02    1.0179334375e+05
    2.8040368110e-02    1.0179833594e+05
    2.8059426695e-02    1.0180340625e+05
    2.8078475967e-02    1.0180835156e+05
    2.8097519651e-02    1.0181322656e+05
    2.8116554022e-02    1.0181671094e+05
    2.8135580942e-02    1.0182008594e+05
    2.8154598549e-02    1.0182225781e+05
    2.8173606843e-02    1.0182091406e+05
    2.8192607686e-02    1.0182619531e+05
    2.8211599216e-02    1.0183040625e+05
    2.8230583295e-02    1.0183471094e+05
    2.8249559924e-02    1.0183777344e+05
    2.8268527240e-02    1.0184065625e+05
    2.8287487105e-02    1.0184441406e+05
    2.8306435794e-02    1.0184325000e+05
    2.8325378895e-02    1.0184147656e+05
    2.8344312683e-02    1.0184433594e+05
    2.8363237157e-02    1.0184731250e+05
    2.8382156044e-02    1.0185035156e+05
    2.8401065618e-02    1.0185346094e+05
    2.8419965878e-02    1.0185640625e+05
    2.8438858688e-02    1.0186152344e+05
    2.8457742184e-02    1.0186292969e+05
    2.8476616368e-02    1.0186285156e+05
    2.8495483100e-02    1.0185669531e+05
    2.8514338657e-02    1.0185960156e+05
    2.8533160686e-02    1.0186032031e+05
    2.8551930562e-02    1.0186706250e+05
    2.8570635244e-02    1.0187622656e+05
    2.8589271009e-02    1.0187621875e+05
    2.8607837856e-02    1.0187172656e+05
    2.8626350686e-02    1.0187402344e+05
    2.8644818813e-02    1.0188235156e+05
    2.8663259000e-02    1.0188365625e+05
    2.8681686148e-02    1.0188124219e+05
    2.8700113297e-02    1.0188790625e+05
    2.8718546033e-02    1.0188559375e+05
    2.8736986220e-02    1.0188767969e+05
    2.8755431995e-02    1.0189085156e+05
    2.8773877770e-02    1.0189160156e+05
    2.8792314231e-02    1.0189232031e+05
    2.8810730204e-02    1.0189522656e+05
    2.8829116374e-02    1.0189669531e+05
    2.8847465292e-02    1.0189577344e+05
    2.8865773231e-02    1.0189933594e+05
    2.8884036466e-02    1.0190050000e+05
    2.8902258724e-02    1.0189235156e+05
    2.8920443729e-02    1.0189689844e+05
    2.8938598931e-02    1.0190008594e+05
    2.8956729919e-02    1.0190116406e+05
    2.8974846005e-02    1.0190332031e+05
    2.8992949054e-02    1.0189507031e+05
    2.9011042789e-02    1.0189947656e+05
    2.9029129073e-02    1.0190150781e+05
    2.9047204182e-02    1.0190003906e+05
    2.9065268114e-02    1.0189602344e+05
    2.9083315283e-02    1.0189883594e+05
    2.9101338238e-02    1.0189714844e+05
    2.9119335115e-02    1.0189531250e+05
    2.9137304053e-02    1.0189672656e+05
    2.9155241325e-02    1.0189815625e+05
    2.9173148796e-02    1.0189713281e+05
    2.9191024601e-02    1.0189596875e+05
    2.9208874330e-02    1.0189580469e+05
    2.9226697981e-02    1.0189114844e+05
    2.9244501144e-02    1.0188600000e+05
    2.9262285680e-02    1.0188660156e+05
    2.9280053452e-02    1.0188602344e+05
    2.9297806323e-02    1.0188428125e+05
    2.9315544292e-02    1.0188839844e+05
    2.9333265498e-02    1.0189521094e+05
    2.9350971803e-02    1.0189397656e+05
    2.9368655756e-02    1.0189257031e+05
    2.9386319220e-02    1.0188988281e+05
    2.9403960332e-02    1.0188219531e+05
    2.9421577230e-02    1.0188008594e+05
    2.9439168051e-02    1.0188015625e+05
    2.9456734657e-02    1.0187666406e+05
    2.9474277049e-02    1.0187760156e+05
    2.9491795227e-02    1.0187408594e+05
    2.9509292915e-02    1.0187535156e+05
    2.9526771978e-02    1.0187344531e+05
    2.9544232413e-02    1.0187419531e+05
    2.9561674222e-02    1.0188324219e+05
    2.9579099268e-02    1.0188553906e+05
    2.9596509412e-02    1.0188309375e+05
    2.9613900930e-02    1.0187574219e+05
    2.9631273821e-02    1.0187516406e+05
    2.9648626223e-02    1.0187586719e+05
    2.9665958136e-02    1.0188355469e+05
    2.9683271423e-02    1.0188585156e+05
    2.9700560495e-02    1.0188142969e+05
    2.9717829078e-02    1.0188650000e+05
    2.9735075310e-02    1.0188715625e+05
    2.9752301052e-02    1.0188805469e+05
    2.9769508168e-02    1.0188918750e+05
    2.9786696658e-02    1.0189503906e+05
    2.9803866521e-02    1.0190259375e+05
    2.9821017757e-02    1.0190547656e+05
    2.9838152230e-02    1.0190818750e+05
    2.9855269939e-02    1.0189928125e+05
    2.9872370884e-02    1.0190512500e+05
    2.9889453202e-02    1.0191128906e+05
    2.9906518757e-02    1.0191275781e+05
    2.9923565686e-02    1.0190488281e+05
    2.9940593988e-02    1.0190389844e+05
    2.9957601801e-02    1.0190753125e+05
    2.9974590987e-02    1.0191706250e+05
    2.9991561547e-02    1.0191977344e+05
    3.0008511618e-02    1.0192135156e+05
    3.0025444925e-02    1.0192290625e+05
    3.0042361468e-02    1.0191733594e+05
    3.0059259385e-02    1.0191649219e+05
    3.0076142401e-02    1.0191562500e+05
    3.0093006790e-02    1.0192859375e+05
    3.0109854415e-02    1.0192903906e+05
    3.0126683414e-02    1.0192257031e+05
    3.0143497512e-02    1.0192406250e+05
    3.0160292983e-02    1.0193246875e+05
    3.0177071691e-02    1.0193160156e+05
    3.0193833634e-02    1.0193184375e+05
    3.0210576952e-02    1.0192746094e+05
    3.0227303505e-02    1.0192849219e+05
    3.0244011432e-02    1.0193196094e+05
    3.0260702595e-02    1.0193089844e+05
    3.0277376994e-02    1.0193214844e+05
    3.0294034630e-02    1.0193935156e+05
    3.0310675502e-02    1.0194082031e+05
    3.0327299610e-02    1.0193747656e+05
    3.0343905091e-02    1.0193764844e+05
    3.0360495672e-02    1.0193889844e+05
    3.0377071351e-02    1.0193997656e+05
    3.0393628404e-02    1.0194203906e+05
    3.0410168692e-02    1.0194168750e+05
    3.0426690355e-02    1.0194236719e+05
    3.0443195254e-02    1.0194312500e+05
    3.0459685251e-02    1.0194378125e+05
    3.0476156622e-02    1.0194325000e+05
    3.0492611229e-02    1.0194275000e+05
    3.0509050936e-02    1.0194456250e+05
    3.0525473878e-02    1.0194432031e+05
    3.0541881919e-02    1.0195006250e+05
    3.0558273196e-02    1.0195339844e+05
    3.0574647710e-02    1.0195685156e+05
    3.0591005459e-02    1.0195328125e+05
    3.0607348308e-02    1.0195428906e+05
    3.0623674393e-02    1.0195087500e+05
    3.0639985576e-02    1.0195783594e+05
    3.0656279996e-02    1.0196010156e+05
    3.0672557652e-02    1.0195543750e+05
    3.0688818544e-02    1.0196582031e+05
    3.0705062672e-02    1.0196714844e+05
    3.0721291900e-02    1.0196253125e+05
    3.0737506226e-02    1.0196152344e+05
    3.0753703788e-02    1.0196052344e+05
    3.0769886449e-02    1.0196172656e+05
    3.0786054209e-02    1.0196527344e+05
    3.0802207068e-02    1.0197588281e+05
    3.0818343163e-02    1.0196803906e+05
    3.0834466219e-02    1.0196675781e+05
    3.0850572512e-02    1.0196753906e+05
    3.0866663903e-02    1.0196822656e+05
    3.0882738531e-02    1.0196891406e+05
    3.0898798257e-02    1.0197074219e+05
    3.0914843082e-02    1.0197259375e+05
    3.0930871144e-02    1.0197441406e+05
    3.0946886167e-02    1.0197385156e+05
    3.0962884426e-02    1.0196952344e+05
    3.0978867784e-02    1.0196516406e+05
    3.0994836241e-02    1.0196497656e+05
    3.1010789797e-02    1.0196453125e+05
    3.1026728451e-02    1.0195580469e+05
    3.1042650342e-02    1.0195153125e+05
    3.1058559194e-02    1.0195286719e+05
    3.1074455008e-02    1.0195187500e+05
    3.1090334058e-02    1.0195066406e+05
    3.1106200069e-02    1.0194687500e+05
    3.1122051179e-02    1.0193846875e+05
    3.1137887388e-02    1.0193644531e+05
    3.1153710559e-02    1.0193414844e+05
    3.1169516966e-02    1.0192243750e+05
    3.1185310334e-02    1.0191733594e+05
    3.1201090664e-02    1.0191663281e+05
    3.1216854230e-02    1.0191366406e+05
    3.1232602894e-02    1.0191068750e+05
    3.1248336658e-02    1.0190777344e+05
    3.1264055520e-02    1.0190609375e+05
    3.1279761344e-02    1.0190459375e+05
    3.1295452267e-02    1.0190555469e+05
    3.1311132014e-02    1.0190706250e+05
    3.1326796860e-02    1.0190656250e+05
    3.1342446804e-02    1.0191110156e+05
    3.1358085573e-02    1.0191467969e+05
    3.1373709440e-02    1.0191655469e+05
    3.1389318407e-02    1.0192343750e+05
    3.1404916197e-02    1.0192882031e+05
    3.1420499086e-02    1.0193464844e+05
    3.1436067075e-02    1.0194612500e+05
    3.1451620162e-02    1.0195724219e+05
    3.1467158347e-02    1.0196216406e+05
    3.1482685357e-02    1.0197803125e+05
    3.1498193741e-02    1.0198078906e+05
    3.1513694674e-02    1.0199546094e+05
    3.1529176980e-02    1.0200375781e+05
    3.1544648111e-02    1.0201824219e+05
    3.1560108066e-02    1.0202630469e+05
    3.1575553119e-02    1.0204289844e+05
    3.1590986997e-02    1.0205291406e+05
    3.1606405973e-02    1.0206787500e+05
    3.1621813774e-02    1.0207721094e+05
    3.1637206674e-02    1.0208427344e+05
    3.1652588397e-02    1.0209221875e+05
    3.1667951494e-02    1.0209085156e+05
    3.1683307141e-02    1.0209846094e+05
    3.1698647887e-02    1.0210474219e+05
    3.1713977456e-02    1.0211310156e+05
    3.1729292125e-02    1.0211091406e+05
    3.1744595617e-02    1.0211760156e+05
    3.1759884208e-02    1.0212397656e+05
    3.1775161624e-02    1.0212305469e+05
    3.1790427864e-02    1.0212653125e+05
    3.1805675477e-02    1.0213071094e+05
    3.1820915639e-02    1.0212753906e+05
    3.1836140901e-02    1.0213087500e+05
    3.1851354986e-02    1.0213596875e+05
    3.1866557896e-02    1.0212794531e+05
    3.1881745905e-02    1.0212735156e+05
    3.1896922737e-02    1.0212364844e+05
    3.1912088394e-02    1.0212177344e+05
    3.1927239150e-02    1.0211461719e+05
    3.1942378730e-02    1.0211502344e+05
    3.1957507133e-02    1.0210581250e+05
    3.1972620636e-02    1.0210541406e+05
    3.1987726688e-02    1.0210478906e+05
    3.2002814114e-02    1.0209464844e+05
    3.2017890364e-02    1.0209099219e+05
    3.2032959163e-02    1.0208925781e+05
    3.2048013061e-02    1.0207789844e+05
    3.2063052058e-02    1.0207285156e+05
    3.2078083605e-02    1.0206521094e+05
    3.2093103975e-02    1.0205683594e+05
    3.2108109444e-02    1.0205282031e+05
    3.2123107463e-02    1.0204415625e+05
    3.2138090581e-02    1.0203521094e+05
    3.2153062522e-02    1.0203314844e+05
    3.2168023288e-02    1.0202646094e+05
    3.2182972878e-02    1.0202203906e+05
    3.2197911292e-02    1.0201763281e+05
    3.2212834805e-02    1.0201316406e+05
    3.2227750868e-02    1.0200871875e+05
    3.2242652029e-02    1.0200430469e+05
    3.2257542014e-02    1.0200007031e+05
    3.2272424549e-02    1.0200277344e+05
    3.2287292182e-02    1.0199896094e+05
    3.2302148640e-02    1.0199530469e+05
    3.2316997647e-02    1.0199667969e+05
    3.2331831753e-02    1.0199365625e+05
    3.2346658409e-02    1.0199306250e+05
    3.2361470163e-02    1.0199490625e+05
    3.2376270741e-02    1.0198789844e+05
    3.2391063869e-02    1.0199009375e+05
    3.2405842096e-02    1.0198782031e+05
    3.2420612872e-02    1.0199007031e+05
    3.2435368747e-02    1.0199136719e+05
    3.2450113446e-02    1.0199044531e+05
    3.2464850694e-02    1.0198731250e+05
    3.2479573041e-02    1.0198440625e+05
    3.2494287938e-02    1.0198736719e+05
    3.2508991659e-02    1.0199097656e+05
    3.2523684204e-02    1.0199263281e+05
    3.2538365573e-02    1.0199347656e+05
    3.2553035766e-02    1.0199700000e+05
    3.2567698509e-02    1.0200202344e+05
    3.2582346350e-02    1.0200258594e+05
    3.2596986741e-02    1.0200324219e+05
    3.2611619681e-02    1.0200383594e+05
    3.2626237720e-02    1.0200208594e+05
    3.2640848309e-02    1.0200489844e+05
    3.2655447721e-02    1.0200319531e+05
    3.2670035958e-02    1.0200386719e+05
    3.2684613019e-02    1.0200687500e+05
    3.2699178904e-02    1.0200749219e+05
    3.2713737339e-02    1.0200572656e+05
    3.2728284597e-02    1.0200516406e+05
    3.2742820680e-02    1.0200453906e+05
    3.2757349312e-02    1.0200621875e+05
    3.2771866769e-02    1.0200782031e+05
    3.2786373049e-02    1.0200821875e+05
    3.2800871879e-02    1.0200859375e+05
    3.2815355808e-02    1.0200677344e+05
    3.2829832286e-02    1.0200721875e+05
    3.2844301313e-02    1.0200997656e+05
    3.2858755440e-02    1.0201055469e+05
    3.2873202115e-02    1.0201003906e+05
    3.2887637615e-02    1.0201183594e+05
    3.2902065665e-02    1.0201252344e+05
    3.2916482538e-02    1.0201217969e+05
    3.2930891961e-02    1.0201410156e+05
    3.2945290208e-02    1.0201483594e+05
    3.2959677279e-02    1.0201452344e+05
    3.2974056900e-02    1.0201652344e+05
    3.2988425344e-02    1.0202666406e+05
    3.3002786338e-02    1.0202539844e+05
    3.3017136157e-02    1.0201947656e+05
    3.3031478524e-02    1.0202260156e+05
    3.3045809716e-02    1.0202117969e+05
    3.3060129732e-02    1.0202664844e+05
    3.3074442297e-02    1.0202655469e+05
    3.3088747412e-02    1.0202653906e+05
    3.3103041351e-02    1.0202534375e+05
    3.3117324114e-02    1.0202637500e+05
    3.3131599426e-02    1.0202846875e+05
    3.3145863563e-02    1.0202828125e+05
    3.3160120249e-02    1.0203150000e+05
    3.3174365759e-02    1.0203024219e+05
    3.3188603818e-02    1.0203352344e+05
    3.3202830702e-02    1.0203685156e+05
    3.3217050135e-02    1.0203307031e+05
    3.3231258392e-02    1.0203721875e+05
    3.3245459199e-02    1.0203463281e+05
    3.3259648830e-02    1.0203309375e+05
    3.3273831010e-02    1.0203606250e+05
    3.3288005739e-02    1.0203683594e+05
    3.3302169293e-02    1.0203753906e+05
    3.3316325396e-02    1.0203825000e+05
    3.3330474049e-02    1.0203883594e+05
    3.3344611526e-02    1.0203921094e+05
    3.3358741552e-02    1.0203600000e+05
    3.3372864127e-02    1.0203238281e+05
    3.3386975527e-02    1.0202965625e+05
    3.3401079476e-02    1.0202810156e+05
    3.3415172249e-02    1.0202888281e+05
    3.3429257572e-02    1.0203093750e+05
    3.3443335444e-02    1.0203564844e+05
    3.3457405865e-02    1.0203808594e+05
    3.3471468836e-02    1.0203367969e+05
    3.3485524356e-02    1.0203128125e+05
    3.3499568701e-02    1.0202858594e+05
    3.3513605595e-02    1.0202694531e+05
    3.3527631313e-02    1.0202511719e+05
    3.3541653305e-02    1.0202434375e+05
    3.3555664122e-02    1.0202575000e+05
    3.3569667488e-02    1.0202484375e+05
    3.3583663404e-02    1.0202155469e+05
    3.3597648144e-02    1.0202300781e+05
    3.3611625433e-02    1.0201989844e+05
    3.3625595272e-02    1.0202146094e+05
    3.3639557660e-02    1.0202081250e+05
    3.3653512597e-02    1.0201786719e+05
    3.3667460084e-02    1.0201714844e+05
    3.3681396395e-02    1.0201627344e+05
    3.3695328981e-02    1.0201527344e+05
    3.3709254116e-02    1.0201410156e+05
    3.3723168075e-02    1.0200583594e+05
    3.3737078309e-02    1.0200210156e+05
    3.3750977367e-02    1.0200069531e+05
    3.3764872700e-02    1.0199946094e+05
    3.3778760582e-02    1.0200760156e+05
    3.3792637289e-02    1.0200902344e+05
    3.3806510270e-02    1.0200574219e+05
    3.3820372075e-02    1.0199675000e+05
    3.3834230155e-02    1.0199443750e+05
    3.3848077059e-02    1.0199318750e+05
    3.3861916512e-02    1.0199181250e+05
    3.3875752240e-02    1.0199278125e+05
    3.3889576793e-02    1.0198910156e+05
    3.3903393894e-02    1.0198784375e+05
    3.3917203546e-02    1.0198885156e+05
    3.3931009471e-02    1.0198768750e+05
    3.3944804221e-02    1.0198544531e+05
    3.3958595246e-02    1.0198553906e+05
    3.3972378820e-02    1.0198452344e+05
    3.3986151218e-02    1.0198235156e+05
    3.3999919891e-02    1.0198243750e+05
    3.4013681114e-02    1.0198128906e+05
    3.4027434886e-02    1.0197778125e+05
    3.4041177481e-02    1.0197869531e+05
    3.4054916352e-02    1.0197714844e+05
    3.4068647772e-02    1.0197082031e+05
    3.4082375467e-02    1.0196907031e+05
    3.4096091986e-02    1.0196508594e+05
    3.4109804779e-02    1.0196116406e+05
    3.4123510122e-02    1.0196888281e+05
    3.4137208015e-02    1.0196866406e+05
    3.4150898457e-02    1.0196635156e+05
    3.4164581448e-02    1.0196758594e+05
    3.4178260714e-02    1.0196658594e+05
    3.4191932529e-02    1.0196339844e+05
    3.4205596894e-02    1.0196478906e+05
    3.4219253808e-02    1.0196397656e+05
    3.4232903272e-02    1.0196314844e+05
    3.4246545285e-02    1.0195997656e+05
    3.4260183573e-02    1.0196017969e+05
    3.4273810685e-02    1.0196034375e+05
    3.4287434071e-02    1.0195930469e+05
    3.4301050007e-02    1.0195818750e+05
    3.4314658493e-02    1.0195692969e+05
    3.4328263253e-02    1.0195092969e+05
    3.4341860563e-02    1.0194846094e+05
    3.4355450422e-02    1.0195064844e+05
    3.4369036555e-02    1.0194941406e+05
    3.4382611513e-02    1.0195053906e+05
    3.4396182746e-02    1.0195063281e+05
    3.4409742802e-02    1.0195071875e+05
    3.4423299134e-02    1.0194735156e+05
    3.4436848015e-02    1.0194500000e+05
    3.4450393170e-02    1.0194252344e+05
    3.4463927150e-02    1.0194109375e+05
    3.4477461129e-02    1.0193955469e+05
    3.4490987659e-02    1.0193565625e+05
    3.4504506737e-02    1.0193174219e+05
    3.4518022090e-02    1.0192893750e+05
    3.4531529993e-02    1.0192385156e+05
    3.4545030445e-02    1.0192344531e+05
    3.4558523446e-02    1.0192536719e+05
    3.4572008997e-02    1.0192633594e+05
    3.4585487098e-02    1.0192731250e+05
    3.4598957747e-02    1.0192571875e+05
    3.4612424672e-02    1.0191724219e+05
    3.4625884145e-02    1.0191064844e+05
    3.4639336169e-02    1.0190862500e+05
    3.4652780741e-02    1.0190666406e+05
    3.4666225314e-02    1.0191158594e+05
    3.4679658711e-02    1.0190637500e+05
    3.4693088382e-02    1.0190102344e+05
    3.4706510603e-02    1.0189906250e+05
    3.4719929099e-02    1.0189711719e+05
    3.4733340144e-02    1.0189515625e+05
    3.4746743739e-02    1.0189434375e+05
    3.4760143608e-02    1.0189125000e+05
    3.4773536026e-02    1.0188921094e+05
    3.4786924720e-02    1.0188715625e+05
    3.4800305963e-02    1.0188500000e+05
    3.4813679755e-02    1.0188049219e+05
    3.4827046096e-02    1.0187817969e+05
    3.4840408713e-02    1.0187577344e+05
    3.4853763878e-02    1.0187435156e+05
    3.4867111593e-02    1.0187289844e+05
    3.4880455583e-02    1.0187028906e+05
    3.4893795848e-02    1.0186310156e+05
    3.4907124937e-02    1.0185564844e+05
    3.4920454025e-02    1.0185278906e+05
    3.4933775663e-02    1.0185217969e+05
    3.4947093576e-02    1.0185166406e+05
    3.4960404038e-02    1.0185143750e+05
    3.4973710775e-02    1.0184912500e+05
    3.4987010062e-02    1.0184918750e+05
endcurve
