Curveplot
LS-DYNA keyword deck by LS-PrePost                          
Time
Pressure
Defined Connection
Pressure @ 87 #pts=1745
* Minval=     9.9991101562e+04 at time=         0.0008941278
* Maxval=     1.6724321875e+05 at time=         0.0078775911
    0.0000000000e+00    9.9998710938e+04
    3.3812357287e-05    9.9998710938e+04
    6.1326652940e-05    9.9998906250e+04
    8.9102875791e-05    9.9998914062e+04
    1.1682785407e-04    9.9996601562e+04
    1.4461828687e-04    9.9998960938e+04
    1.7236733402e-04    9.9999398438e+04
    2.0016246708e-04    1.0000003125e+05
    2.2795486439e-04    1.0000525781e+05
    2.5574557367e-04    1.0000133594e+05
    2.8353667585e-04    1.0000168750e+05
    3.1133697485e-04    1.0000153125e+05
    3.3912662184e-04    9.9992031250e+04
    3.6691734567e-04    1.0000078906e+05
    3.9470891352e-04    1.0000103906e+05
    4.2249175021e-04    1.0000177344e+05
    4.5027161832e-04    1.0000231250e+05
    4.7804549104e-04    1.0000231250e+05
    5.0581363030e-04    1.0000234375e+05
    5.3357944125e-04    9.9993273438e+04
    5.6134146871e-04    9.9992820312e+04
    5.8909942163e-04    1.0000167969e+05
    6.1685312539e-04    1.0000202344e+05
    6.4460188150e-04    1.0000250781e+05
    6.7234638846e-04    1.0000277344e+05
    7.0008635521e-04    9.9996976562e+04
    7.2782178177e-04    9.9995601562e+04
    7.5555208605e-04    1.0000265625e+05
    7.8327720985e-04    1.0000794531e+05
    8.1099680392e-04    1.0000385156e+05
    8.3871174138e-04    1.0000128906e+05
    8.6642213864e-04    9.9996210938e+04
    8.9412782108e-04    9.9991101562e+04
    9.2182843946e-04    9.9999835938e+04
    9.4952445943e-04    9.9995117188e+04
    9.7721535712e-04    1.0000175000e+05
    1.0049008997e-03    1.0000292969e+05
    1.0325826006e-03    1.0000433594e+05
    1.0602590628e-03    1.0000925781e+05
    1.0879321489e-03    1.0000283594e+05
    1.1155996472e-03    1.0000282031e+05
    1.1432634201e-03    9.9993648438e+04
    1.1709230021e-03    9.9993398438e+04
    1.1985785095e-03    9.9999664062e+04
    1.2262313394e-03    1.0000165625e+05
    1.2538790470e-03    1.0000144531e+05
    1.2815232622e-03    9.9996851562e+04
    1.3091630535e-03    1.0000216406e+05
    1.3368004002e-03    1.0000453125e+05
    1.3644339051e-03    1.0001197656e+05
    1.3920635683e-03    1.0002446875e+05
    1.4196902048e-03    1.0005364844e+05
    1.4473132323e-03    1.0011200000e+05
    1.4749332331e-03    1.0019753906e+05
    1.5025498578e-03    1.0032731250e+05
    1.5301633393e-03    1.0051192969e+05
    1.5577742597e-03    1.0077278906e+05
    1.5853822697e-03    1.0109302344e+05
    1.6129877185e-03    1.0146391406e+05
    1.6405890929e-03    1.0186503125e+05
    1.6681876732e-03    1.0225118750e+05
    1.6957829939e-03    1.0259900781e+05
    1.7233766848e-03    1.0287163281e+05
    1.7509678146e-03    1.0305006250e+05
    1.7785291420e-03    1.0313769531e+05
    1.8060547300e-03    1.0313525781e+05
    1.8335470231e-03    1.0305852344e+05
    1.8610082334e-03    1.0292228906e+05
    1.8884401070e-03    1.0275197656e+05
    1.9158447394e-03    1.0257328906e+05
    1.9432241097e-03    1.0241805469e+05
    1.9705800805e-03    1.0229439844e+05
    1.9979148638e-03    1.0221987500e+05
    2.0252298564e-03    1.0219075000e+05
    2.0525271539e-03    1.0221657031e+05
    2.0798076876e-03    1.0227217969e+05
    2.1070730872e-03    1.0234246875e+05
    2.1343247499e-03    1.0241097656e+05
    2.1615643054e-03    1.0248328906e+05
    2.1887931507e-03    1.0252762500e+05
    2.2160108201e-03    1.0255010156e+05
    2.2432196420e-03    1.0253894531e+05
    2.2704207804e-03    1.0251788281e+05
    2.2976147011e-03    1.0247509375e+05
    2.3248014040e-03    1.0244397656e+05
    2.3519827519e-03    1.0241965625e+05
    2.3791582789e-03    1.0239282031e+05
    2.4063293822e-03    1.0238375781e+05
    2.4334960617e-03    1.0238452344e+05
    2.4606597144e-03    1.0239238281e+05
    2.4878205732e-03    1.0240843750e+05
    2.5149781723e-03    1.0242765625e+05
    2.5421329774e-03    1.0244164844e+05
    2.5692859199e-03    1.0244847656e+05
    2.5964374654e-03    1.0244950000e+05
    2.6235871483e-03    1.0244485156e+05
    2.6507352013e-03    1.0243356250e+05
    2.6778825559e-03    1.0242864844e+05
    2.7050296776e-03    1.0242196875e+05
    2.7321761008e-03    1.0241864844e+05
    2.7593218256e-03    1.0241847656e+05
    2.7864677832e-03    1.0241910156e+05
    2.8136142064e-03    1.0242286719e+05
    2.8407603968e-03    1.0243460156e+05
    2.8679079842e-03    1.0244503125e+05
    2.8950548731e-03    1.0246130469e+05
    2.9222022276e-03    1.0247667969e+05
    2.9493502807e-03    1.0252231250e+05
    2.9764990322e-03    1.0257202344e+05
    3.0036487151e-03    1.0264571875e+05
    3.0307997949e-03    1.0272574219e+05
    3.0579508748e-03    1.0281246875e+05
    3.0851035845e-03    1.0291577344e+05
    3.1122572254e-03    1.0302124219e+05
    3.1394117977e-03    1.0312306250e+05
    3.1665677670e-03    1.0320450781e+05
    3.1937246677e-03    1.0326113281e+05
    3.2208829653e-03    1.0330185156e+05
    3.2480424270e-03    1.0331266406e+05
    3.2752046827e-03    1.0328837500e+05
    3.2952371985e-03    1.0325567969e+05
    3.3145032357e-03    1.0321635156e+05
    3.3336398192e-03    1.0317880469e+05
    3.3528339118e-03    1.0314693750e+05
    3.3720366191e-03    1.0310357031e+05
    3.3912549261e-03    1.0306419531e+05
    3.4104890656e-03    1.0301997656e+05
    3.4297339153e-03    1.0297806250e+05
    3.4486323129e-03    1.0293185156e+05
    3.4671388566e-03    1.0287928906e+05
    3.4854323603e-03    1.0282988281e+05
    3.5036695190e-03    1.0276943750e+05
    3.5219141282e-03    1.0270488281e+05
    3.5401545465e-03    1.0264081250e+05
    3.5583588760e-03    1.0256819531e+05
    3.5765271168e-03    1.0249677344e+05
    3.5946895368e-03    1.0243003906e+05
    3.6139658187e-03    1.0237371094e+05
    3.6330535077e-03    1.0232591406e+05
    3.6521453876e-03    1.0228364844e+05
    3.6699753255e-03    1.0224522656e+05
    3.6875614896e-03    1.0222053906e+05
    3.7050142419e-03    1.0220296094e+05
    3.7224807311e-03    1.0219236719e+05
    3.7400643341e-03    1.0217955469e+05
    3.7577797193e-03    1.0216433594e+05
    3.7755726371e-03    1.0215231250e+05
    3.7933769636e-03    1.0214128906e+05
    3.8111612666e-03    1.0213791406e+05
    3.8289318327e-03    1.0213528906e+05
    3.8467168342e-03    1.0212964844e+05
    3.8645383902e-03    1.0212541406e+05
    3.8824023213e-03    1.0211646875e+05
    3.9002960548e-03    1.0210549219e+05
    3.9182156324e-03    1.0209569531e+05
    3.9361710660e-03    1.0207753906e+05
    3.9541716687e-03    1.0204978125e+05
    3.9733103476e-03    1.0203208594e+05
    3.9924201556e-03    1.0201436719e+05
    4.0104058571e-03    1.0199712500e+05
    4.0284004062e-03    1.0199003906e+05
    4.0464363992e-03    1.0198408594e+05
    4.0656095371e-03    1.0197909375e+05
    4.0847789496e-03    1.0196337500e+05
    4.1039343923e-03    1.0195953125e+05
    4.1219722480e-03    1.0194944531e+05
    4.1400394402e-03    1.0194689844e+05
    4.1591953486e-03    1.0194247656e+05
    4.1784178466e-03    1.0193266406e+05
    4.1976389475e-03    1.0193003906e+05
    4.2168586515e-03    1.0191964844e+05
    4.2360713705e-03    1.0191140625e+05
    4.2552771047e-03    1.0190060156e+05
    4.2744791135e-03    1.0188241406e+05
    4.2936825193e-03    1.0186825781e+05
    4.3128933758e-03    1.0186049219e+05
    4.3321144767e-03    1.0185216406e+05
    4.3513495475e-03    1.0183824219e+05
    4.3705995195e-03    1.0182502344e+05
    4.3898657896e-03    1.0180752344e+05
    4.4091497548e-03    1.0178275000e+05
    4.4284537435e-03    1.0175678906e+05
    4.4477786869e-03    1.0171639844e+05
    4.4671236537e-03    1.0167084375e+05
    4.4864914380e-03    1.0162055469e+05
    4.5058806427e-03    1.0155681250e+05
    4.5252908021e-03    1.0148586719e+05
    4.5447219163e-03    1.0140730469e+05
    4.5641721226e-03    1.0131652344e+05
    4.5836409554e-03    1.0121821094e+05
    4.6031279489e-03    1.0110816406e+05
    4.6226321720e-03    1.0098760156e+05
    4.6421540901e-03    1.0086678906e+05
    4.6616927721e-03    1.0073858594e+05
    4.6812482178e-03    1.0061409375e+05
    4.7008208930e-03    1.0049615625e+05
    4.7204112634e-03    1.0039417969e+05
    4.7400193289e-03    1.0030853125e+05
    4.7596455552e-03    1.0023350781e+05
    4.7792894766e-03    1.0018108594e+05
    4.7989510931e-03    1.0015346875e+05
    4.8186304048e-03    1.0014330469e+05
    4.8383255489e-03    1.0015296094e+05
    4.8580355942e-03    1.0018174219e+05
    4.8777610064e-03    1.0023078906e+05
    4.8975008540e-03    1.0028960156e+05
    4.9172551371e-03    1.0035380469e+05
    4.9370229244e-03    1.0041877344e+05
    4.9568060786e-03    1.0047409375e+05
    4.9766036682e-03    1.0052896094e+05
    4.9964170903e-03    1.0057271094e+05
    5.0162458792e-03    1.0061293750e+05
    5.0360900350e-03    1.0064066406e+05
    5.0559476949e-03    1.0066418750e+05
    5.0758207217e-03    1.0067871094e+05
    5.0957072526e-03    1.0068297656e+05
    5.1156077534e-03    1.0067610156e+05
    5.1355226897e-03    1.0066442969e+05
    5.1554525271e-03    1.0065221094e+05
    5.1753963344e-03    1.0063352344e+05
    5.1953555085e-03    1.0061361719e+05
    5.2153295837e-03    1.0059817969e+05
    5.2353194915e-03    1.0058134375e+05
    5.2553247660e-03    1.0057557031e+05
    5.2753463387e-03    1.0057200000e+05
    5.2953832783e-03    1.0057083594e+05
    5.3154369816e-03    1.0057302344e+05
    5.3355065174e-03    1.0058399219e+05
    5.3555918857e-03    1.0059535156e+05
    5.3756926209e-03    1.0060346875e+05
    5.3958082572e-03    1.0061352344e+05
    5.4159392603e-03    1.0062638281e+05
    5.4360851645e-03    1.0063793750e+05
    5.4562464356e-03    1.0065015625e+05
    5.4764230736e-03    1.0065492969e+05
    5.4966160096e-03    1.0066458594e+05
    5.5168238468e-03    1.0066889844e+05
    5.5370470509e-03    1.0067240625e+05
    5.5572865531e-03    1.0067508594e+05
    5.5775423534e-03    1.0066772656e+05
    5.5978130549e-03    1.0066663281e+05
    5.6181000546e-03    1.0066791406e+05
    5.6384028867e-03    1.0067175000e+05
    5.6587206200e-03    1.0067383594e+05
    5.6790532544e-03    1.0067538281e+05
    5.6994007900e-03    1.0067977344e+05
    5.7197632268e-03    1.0068337500e+05
    5.7401410304e-03    1.0068722656e+05
    5.7605337352e-03    1.0069117969e+05
    5.7809422724e-03    1.0069485156e+05
    5.8013652451e-03    1.0069828906e+05
    5.8218040504e-03    1.0070157031e+05
    5.8422577567e-03    1.0070509375e+05
    5.8627268299e-03    1.0070875000e+05
    5.8832112700e-03    1.0071130469e+05
    5.9037101455e-03    1.0072405469e+05
    5.9242248535e-03    1.0072671094e+05
    5.9447535314e-03    1.0072355469e+05
    5.9641525149e-03    1.0072764844e+05
    5.9830932878e-03    1.0074087500e+05
    6.0020405799e-03    1.0074427344e+05
    6.0210367665e-03    1.0075244531e+05
    6.0400799848e-03    1.0076641406e+05
    6.0591096990e-03    1.0076818750e+05
    6.0781282373e-03    1.0077674219e+05
    6.0972142965e-03    1.0077958594e+05
    6.1162756756e-03    1.0078250781e+05
    6.1353649944e-03    1.0079003906e+05
    6.1544459313e-03    1.0080446875e+05
    6.1734300107e-03    1.0080750000e+05
    6.1924448237e-03    1.0081036719e+05
    6.2115197070e-03    1.0082014844e+05
    6.2306127511e-03    1.0082575000e+05
    6.2497169711e-03    1.0084092969e+05
    6.2688281760e-03    1.0085678906e+05
    6.2879407778e-03    1.0086410156e+05
    6.3070552424e-03    1.0088110156e+05
    6.3261794858e-03    1.0089191406e+05
    6.3453060575e-03    1.0090806250e+05
    6.3644465990e-03    1.0092513281e+05
    6.3835908659e-03    1.0094664844e+05
    6.4027444459e-03    1.0096902344e+05
    6.4219115302e-03    1.0098410156e+05
    6.4410855994e-03    1.0100299219e+05
    6.4602680504e-03    1.0101871094e+05
    6.4794607460e-03    1.0102878906e+05
    6.4986641519e-03    1.0104441406e+05
    6.5178787336e-03    1.0105760156e+05
    6.5371058881e-03    1.0106781250e+05
    6.5563363023e-03    1.0107255469e+05
    6.5755699761e-03    1.0107383594e+05
    6.5948092379e-03    1.0106700781e+05
    6.6140629351e-03    1.0106574219e+05
    6.6333152354e-03    1.0107041406e+05
    6.6525745206e-03    1.0106753906e+05
    6.6718445159e-03    1.0106632031e+05
    6.6911154427e-03    1.0106919531e+05
    6.7104012705e-03    1.0106471094e+05
    6.7296870984e-03    1.0106865625e+05
    6.7489854991e-03    1.0107122656e+05
    6.7682852969e-03    1.0107341406e+05
    6.7875892855e-03    1.0106949219e+05
    6.8069072440e-03    1.0106719531e+05
    6.8262196146e-03    1.0106660156e+05
    6.8455408327e-03    1.0105634375e+05
    6.8648783490e-03    1.0105715625e+05
    6.8842126057e-03    1.0106035156e+05
    6.9035501219e-03    1.0106840625e+05
    6.9228983484e-03    1.0106961719e+05
    6.9422605447e-03    1.0106040625e+05
    6.9616222754e-03    1.0105838281e+05
    6.9809844717e-03    1.0105233594e+05
    7.0003494620e-03    1.0104455469e+05
    7.0197195746e-03    1.0105028906e+05
    7.0390999317e-03    1.0104969531e+05
    7.0584909990e-03    1.0104950000e+05
    7.0778946392e-03    1.0105191406e+05
    7.0973108523e-03    1.0105219531e+05
    7.1167377755e-03    1.0105021875e+05
    7.1361698210e-03    1.0105033594e+05
    7.1556069888e-03    1.0104908594e+05
    7.1750483476e-03    1.0104991406e+05
    7.1944966912e-03    1.0104857031e+05
    7.2139529511e-03    1.0105189844e+05
    7.2334166616e-03    1.0105416406e+05
    7.2528840974e-03    1.0105646875e+05
    7.2723543271e-03    1.0105428125e+05
    7.2918278165e-03    1.0105447656e+05
    7.3113050312e-03    1.0105953125e+05
    7.3307845742e-03    1.0106041406e+05
    7.3502692394e-03    1.0106410156e+05
    7.3697618209e-03    1.0107307031e+05
    7.3892641813e-03    1.0107582031e+05
    7.4087800458e-03    1.0107222656e+05
    7.4282912537e-03    1.0107391406e+05
    7.4477996677e-03    1.0108613281e+05
    7.4673094787e-03    1.0109566406e+05
    7.4868267402e-03    1.0111231250e+05
    7.5063589029e-03    1.0113678125e+05
    7.5258887373e-03    1.0116416406e+05
    7.5454111211e-03    1.0120347656e+05
    7.5649353676e-03    1.0126416406e+05
    7.5844703242e-03    1.0135472656e+05
    7.6040057465e-03    1.0150066406e+05
    7.6235276647e-03    1.0175624219e+05
    7.6430505142e-03    1.0221509375e+05
    7.6625877991e-03    1.0305627344e+05
    7.6821087860e-03    1.0457202344e+05
    7.7016241848e-03    1.0721474219e+05
    7.7211544849e-03    1.1153683594e+05
    7.7406810597e-03    1.1801902344e+05
    7.7602043748e-03    1.2675860156e+05
    7.7797495760e-03    1.3712160938e+05
    7.7992938459e-03    1.4775612500e+05
    7.8188432381e-03    1.5694035938e+05
    7.8384252265e-03    1.6338215625e+05
    7.8580006957e-03    1.6666443750e+05
    7.8775910661e-03    1.6724321875e+05
    7.8972103074e-03    1.6601937500e+05
    7.9168286175e-03    1.6393056250e+05
    7.9364804551e-03    1.6181782812e+05
    7.9561360180e-03    1.6004403125e+05
    7.9758102074e-03    1.5865426562e+05
    7.9955114052e-03    1.5752503125e+05
    8.0152126029e-03    1.5643978125e+05
    8.0349491909e-03    1.5519253125e+05
    8.0546662211e-03    1.5369542188e+05
    8.0743944272e-03    1.5194806250e+05
    8.0941170454e-03    1.5002668750e+05
    8.1138620153e-03    1.4805148438e+05
    8.1336386502e-03    1.4611800000e+05
    8.1534720957e-03    1.4429831250e+05
    8.1733558327e-03    1.4262867188e+05
    8.1932730973e-03    1.4109450000e+05
    8.2132071257e-03    1.3966923438e+05
    8.2330890000e-03    1.3832198438e+05
    8.2529615611e-03    1.3704031250e+05
    8.2727763802e-03    1.3579721875e+05
    8.2926023751e-03    1.3460256250e+05
    8.3124246448e-03    1.3346092188e+05
    8.3322748542e-03    1.3237896875e+05
    8.3521194756e-03    1.3137090625e+05
    8.3719678223e-03    1.3043187500e+05
    8.3917891607e-03    1.2958125000e+05
    8.4116021171e-03    1.2879428125e+05
    8.4314141423e-03    1.2807035156e+05
    8.4512168542e-03    1.2738158594e+05
    8.4710381925e-03    1.2673894531e+05
    8.4908353165e-03    1.2610663281e+05
    8.5106678307e-03    1.2549900781e+05
    8.5304882377e-03    1.2491496094e+05
    8.5503393784e-03    1.2435363281e+05
    8.5699046031e-03    1.2381267969e+05
    8.5892248899e-03    1.2330007031e+05
    8.6083402857e-03    1.2282696875e+05
    8.6272666231e-03    1.2238175000e+05
    8.6460309103e-03    1.2196143750e+05
    8.6646731943e-03    1.2155838281e+05
    8.6832325906e-03    1.2117284375e+05
    8.7017398328e-03    1.2080189844e+05
    8.7202098221e-03    1.2044266406e+05
    8.7386453524e-03    1.2009427344e+05
    8.7570473552e-03    1.1976536719e+05
    8.7753897533e-03    1.1945738281e+05
    8.7936492637e-03    1.1916689844e+05
    8.8118780404e-03    1.1889591406e+05
    8.8300397620e-03    1.1864805469e+05
    8.8481390849e-03    1.1842022656e+05
    8.8662039489e-03    1.1821403125e+05
    8.8842641562e-03    1.1801725781e+05
    8.9023411274e-03    1.1783560156e+05
    8.9204348624e-03    1.1766137500e+05
    8.9385388419e-03    1.1748965625e+05
    8.9566456154e-03    1.1732417969e+05
    8.9747514576e-03    1.1716190625e+05
    8.9928600937e-03    1.1700133594e+05
    9.0109808370e-03    1.1684518750e+05
    9.0291155502e-03    1.1669577344e+05
    9.0472688898e-03    1.1655753125e+05
    9.0654399246e-03    1.1641834375e+05
    9.0836230665e-03    1.1628097656e+05
    9.1018192470e-03    1.1615496875e+05
    9.1200266033e-03    1.1602756250e+05
    9.1382460669e-03    1.1590052344e+05
    9.1564757749e-03    1.1577575781e+05
    9.1747231781e-03    1.1566246094e+05
    9.1929892078e-03    1.1554514844e+05
    9.2112747952e-03    1.1542900781e+05
    9.2295790091e-03    1.1532028906e+05
    9.2479009181e-03    1.1520297656e+05
    9.2662386596e-03    1.1508833594e+05
    9.2845931649e-03    1.1496839844e+05
    9.3029672280e-03    1.1485444531e+05
    9.3213599175e-03    1.1473542969e+05
    9.3397712335e-03    1.1461640625e+05
    9.3582011759e-03    1.1449147656e+05
    9.3766497448e-03    1.1436160156e+05
    9.3951150775e-03    1.1422074219e+05
    9.4135999680e-03    1.1406750781e+05
    9.4321016222e-03    1.1390639844e+05
    9.4506228343e-03    1.1373132031e+05
    9.4691645354e-03    1.1354685156e+05
    9.4877239317e-03    1.1335485156e+05
    9.5063010231e-03    1.1315353906e+05
    9.5248948783e-03    1.1293931250e+05
    9.5435054973e-03    1.1272199219e+05
    9.5621328801e-03    1.1249546094e+05
    9.5807760954e-03    1.1226684375e+05
    9.5994332805e-03    1.1203671094e+05
    9.6181081608e-03    1.1181921875e+05
    9.6367979422e-03    1.1160322656e+05
    9.6555035561e-03    1.1139603906e+05
    9.6742231399e-03    1.1120347656e+05
    9.6929576248e-03    1.1101978906e+05
    9.7117051482e-03    1.1085246094e+05
    9.7304685041e-03    1.1070964844e+05
    9.7492448986e-03    1.1058413281e+05
    9.7680361941e-03    1.1047878906e+05
    9.7868405282e-03    1.1039521094e+05
    9.8056588322e-03    1.1032775781e+05
    9.8244920373e-03    1.1027939844e+05
    9.8433364183e-03    1.1024858594e+05
    9.8621929064e-03    1.1022397656e+05
    9.8810633644e-03    1.1021088281e+05
    9.8999459296e-03    1.1020991406e+05
    9.9188406020e-03    1.1022185156e+05
    9.9377483130e-03    1.1023802344e+05
    9.9566690624e-03    1.1025694531e+05
    9.9756028503e-03    1.1028160156e+05
    9.9945487455e-03    1.1029683594e+05
    1.0013507679e-02    1.1031003906e+05
    1.0032479651e-02    1.1031310156e+05
    1.0051463731e-02    1.1032060156e+05
    1.0070459917e-02    1.1032558594e+05
    1.0089469142e-02    1.1032544531e+05
    1.0108492337e-02    1.1032397656e+05
    1.0127528571e-02    1.1031710156e+05
    1.0146577843e-02    1.1030065625e+05
    1.0165639222e-02    1.1028327344e+05
    1.0184712708e-02    1.1026559375e+05
    1.0203798302e-02    1.1024491406e+05
    1.0222896002e-02    1.1021828906e+05
    1.0242006741e-02    1.1019644531e+05
    1.0261129588e-02    1.1016921094e+05
    1.0280264542e-02    1.1014317969e+05
    1.0299413465e-02    1.1010985156e+05
    1.0318575427e-02    1.1007911719e+05
    1.0337748565e-02    1.1005396094e+05
    1.0356934741e-02    1.1002172656e+05
    1.0376133956e-02    1.0999590625e+05
    1.0395346209e-02    1.0996437500e+05
    1.0414571501e-02    1.0994240625e+05
    1.0433809832e-02    1.0991975000e+05
    1.0453061201e-02    1.0989872656e+05
    1.0472324677e-02    1.0987996094e+05
    1.0491601191e-02    1.0985596875e+05
    1.0510892607e-02    1.0984130469e+05
    1.0530196130e-02    1.0981871094e+05
    1.0549513623e-02    1.0980850000e+05
    1.0568842292e-02    1.0979893750e+05
    1.0588183999e-02    1.0978641406e+05
    1.0607538745e-02    1.0977652344e+05
    1.0626907460e-02    1.0976802344e+05
    1.0646289214e-02    1.0975441406e+05
    1.0665684007e-02    1.0973959375e+05
    1.0685092770e-02    1.0971715625e+05
    1.0704516433e-02    1.0969612500e+05
    1.0723951273e-02    1.0966535156e+05
    1.0743400082e-02    1.0962672656e+05
    1.0762862861e-02    1.0958166406e+05
    1.0782338679e-02    1.0952057031e+05
    1.0801829398e-02    1.0944864844e+05
    1.0821334086e-02    1.0936667969e+05
    1.0840852745e-02    1.0927725000e+05
    1.0860386305e-02    1.0918185156e+05
    1.0879932903e-02    1.0908787500e+05
    1.0899493471e-02    1.0899638281e+05
    1.0919069871e-02    1.0889306250e+05
    1.0938662104e-02    1.0879500000e+05
    1.0958270170e-02    1.0869315625e+05
    1.0977892205e-02    1.0859106250e+05
    1.0997531936e-02    1.0848517969e+05
    1.1017187499e-02    1.0838502344e+05
    1.1036860757e-02    1.0828650000e+05
    1.1056551710e-02    1.0819716406e+05
    1.1076259427e-02    1.0811346094e+05
    1.1095987633e-02    1.0802909375e+05
    1.1115733534e-02    1.0795452344e+05
    1.1135498993e-02    1.0788367969e+05
    1.1155283079e-02    1.0781353125e+05
    1.1175086722e-02    1.0775183594e+05
    1.1194912717e-02    1.0769783594e+05
    1.1214758269e-02    1.0763800000e+05
    1.1234625243e-02    1.0757892969e+05
    1.1254511774e-02    1.0751453906e+05
    1.1274418794e-02    1.0745352344e+05
    1.1294347234e-02    1.0739578125e+05
    1.1314296164e-02    1.0733600000e+05
    1.1334266514e-02    1.0727796875e+05
    1.1354257353e-02    1.0720546094e+05
    1.1374268681e-02    1.0714261719e+05
    1.1394302361e-02    1.0707621094e+05
    1.1414355598e-02    1.0700285156e+05
    1.1434430256e-02    1.0692877344e+05
    1.1454525404e-02    1.0685403125e+05
    1.1474640109e-02    1.0677871094e+05
    1.1494777165e-02    1.0670328906e+05
    1.1514934711e-02    1.0663241406e+05
    1.1535113677e-02    1.0656834375e+05
    1.1555313133e-02    1.0650760156e+05
    1.1575534008e-02    1.0644284375e+05
    1.1595774442e-02    1.0638671094e+05
    1.1616035365e-02    1.0632878906e+05
    1.1636316776e-02    1.0627506250e+05
    1.1656619608e-02    1.0622002344e+05
    1.1676942930e-02    1.0616803906e+05
    1.1697287671e-02    1.0611830469e+05
    1.1717652902e-02    1.0606185156e+05
    1.1738038622e-02    1.0600824219e+05
    1.1758443899e-02    1.0593993750e+05
    1.1778870597e-02    1.0587791406e+05
    1.1799318716e-02    1.0580778125e+05
    1.1819788255e-02    1.0573569531e+05
    1.1840280145e-02    1.0566185156e+05
    1.1860790662e-02    1.0559725781e+05
    1.1881321669e-02    1.0553599219e+05
    1.1901874095e-02    1.0546702344e+05
    1.1922447011e-02    1.0538875000e+05
    1.1943042278e-02    1.0531536719e+05
    1.1963658035e-02    1.0522478125e+05
    1.1984295212e-02    1.0513511719e+05
    1.2004952878e-02    1.0504572656e+05
    1.2025631964e-02    1.0495336719e+05
    1.2046331540e-02    1.0485833594e+05
    1.2067052536e-02    1.0476892969e+05
    1.2087795883e-02    1.0467686719e+05
    1.2108558789e-02    1.0459885156e+05
    1.2129344046e-02    1.0452608594e+05
    1.2150149792e-02    1.0445738281e+05
    1.2170976959e-02    1.0440489844e+05
    1.2191825546e-02    1.0436755469e+05
    1.2212695554e-02    1.0434118750e+05
    1.2233586982e-02    1.0431900781e+05
    1.2254500762e-02    1.0430125000e+05
    1.2275436893e-02    1.0428516406e+05
    1.2296394445e-02    1.0426738281e+05
    1.2317374349e-02    1.0425534375e+05
    1.2338375673e-02    1.0423075781e+05
    1.2359398417e-02    1.0420184375e+05
    1.2380442582e-02    1.0416635156e+05
    1.2401508167e-02    1.0412065625e+05
    1.2422595173e-02    1.0407952344e+05
    1.2443703599e-02    1.0403364844e+05
    1.2464834377e-02    1.0399349219e+05
    1.2485986575e-02    1.0395022656e+05
    1.2507158332e-02    1.0391790625e+05
    1.2528351508e-02    1.0388825000e+05
    1.2549565174e-02    1.0385484375e+05
    1.2570801191e-02    1.0382464844e+05
    1.2592058629e-02    1.0380546094e+05
    1.2613337487e-02    1.0378453906e+05
    1.2634636834e-02    1.0376509375e+05
    1.2655957602e-02    1.0374828906e+05
    1.2677297927e-02    1.0372694531e+05
    1.2698660605e-02    1.0369746094e+05
    1.2720043771e-02    1.0366160156e+05
    1.2741449289e-02    1.0362284375e+05
    1.2762876227e-02    1.0358309375e+05
    1.2784325518e-02    1.0354491406e+05
    1.2805794366e-02    1.0350471094e+05
    1.2827285565e-02    1.0346375000e+05
    1.2848797254e-02    1.0342902344e+05
    1.2870330364e-02    1.0339572656e+05
    1.2891885825e-02    1.0336510156e+05
    1.2913462706e-02    1.0333496094e+05
    1.2935061008e-02    1.0330993750e+05
    1.2956679799e-02    1.0328097656e+05
    1.2978320010e-02    1.0325239844e+05
    1.2999981642e-02    1.0322265625e+05
    1.3021663763e-02    1.0318913281e+05
    1.3043368235e-02    1.0314743750e+05
    1.3065092266e-02    1.0310505469e+05
    1.3086837716e-02    1.0307302344e+05
    1.3108605519e-02    1.0304543750e+05
    1.3130392879e-02    1.0303850781e+05
    1.3152201660e-02    1.0304591406e+05
    1.3174032792e-02    1.0307849219e+05
    1.3195885345e-02    1.0315758594e+05
    1.3217759319e-02    1.0330191406e+05
    1.3239653781e-02    1.0352367969e+05
    1.3261569664e-02    1.0383846094e+05
    1.3283506967e-02    1.0427125781e+05
    1.3305463828e-02    1.0482650000e+05
    1.3327440247e-02    1.0552402344e+05
    1.3349435292e-02    1.0635346875e+05
    1.3371448033e-02    1.0729819531e+05
    1.3393475674e-02    1.0831696875e+05
    1.3415516354e-02    1.0934949219e+05
    1.3437564485e-02    1.1032247656e+05
    1.3459613547e-02    1.1115157031e+05
    1.3481658883e-02    1.1178746875e+05
    1.3503690250e-02    1.1217803906e+05
    1.3525702059e-02    1.1231591406e+05
    1.3547683135e-02    1.1220782031e+05
    1.3569628820e-02    1.1188213281e+05
    1.3591531664e-02    1.1137178125e+05
    1.3613392599e-02    1.1074166406e+05
    1.3635210693e-02    1.1002981250e+05
    1.3656994328e-02    1.0930117969e+05
    1.3678749092e-02    1.0860507031e+05
    1.3700488023e-02    1.0798518750e+05
    1.3722228818e-02    1.0746610156e+05
    1.3743981719e-02    1.0705510156e+05
    1.3765762560e-02    1.0673597656e+05
    1.3787578791e-02    1.0648134375e+05
    1.3809437864e-02    1.0625578906e+05
    1.3831341639e-02    1.0601480469e+05
    1.3853288256e-02    1.0573902344e+05
    1.3875273056e-02    1.0540811719e+05
    1.3897285797e-02    1.0501741406e+05
    1.3919321820e-02    1.0456978906e+05
    1.3941374607e-02    1.0408074219e+05
    1.3963440433e-02    1.0356853906e+05
    1.3985517435e-02    1.0306253906e+05
    1.4007603750e-02    1.0258772656e+05
    1.4029704034e-02    1.0216944531e+05
    1.4051820152e-02    1.0181827344e+05
    1.4073957689e-02    1.0153131250e+05
    1.4096121304e-02    1.0132188281e+05
    1.4118315652e-02    1.0117153906e+05
    1.4140545391e-02    1.0108200000e+05
    1.4162814245e-02    1.0103778906e+05
    1.4185124077e-02    1.0103767969e+05
    1.4207473956e-02    1.0105561719e+05
    1.4229862019e-02    1.0109021094e+05
    1.4252286404e-02    1.0112534375e+05
    1.4274741523e-02    1.0115378906e+05
    1.4297228307e-02    1.0117328906e+05
    1.4319745824e-02    1.0118327344e+05
    1.4342290349e-02    1.0118091406e+05
    1.4364863746e-02    1.0117057031e+05
    1.4387467876e-02    1.0115225781e+05
    1.4410103671e-02    1.0112559375e+05
    1.4432771131e-02    1.0110228125e+05
    1.4455472119e-02    1.0107382031e+05
    1.4478209428e-02    1.0104914844e+05
    1.4500979334e-02    1.0102836719e+05
    1.4523783699e-02    1.0101181250e+05
    1.4546621591e-02    1.0100689844e+05
    1.4569494873e-02    1.0101259375e+05
    1.4592399821e-02    1.0102961719e+05
    1.4615339227e-02    1.0106350781e+05
    1.4638305642e-02    1.0111502344e+05
    1.4661304653e-02    1.0117540625e+05
    1.4684336260e-02    1.0125400000e+05
    1.4707398601e-02    1.0133586719e+05
    1.4730494469e-02    1.0142743750e+05
    1.4753622934e-02    1.0151484375e+05
    1.4776783995e-02    1.0159253906e+05
    1.4799979515e-02    1.0165103125e+05
    1.4823205769e-02    1.0169156250e+05
    1.4846466482e-02    1.0171349219e+05
    1.4869757928e-02    1.0172775000e+05
    1.4893081971e-02    1.0173752344e+05
    1.4916437678e-02    1.0175646094e+05
    1.4939822257e-02    1.0177828906e+05
    1.4963239431e-02    1.0180884375e+05
    1.4986685477e-02    1.0184250781e+05
    1.5010161325e-02    1.0188558594e+05
    1.5033668838e-02    1.0192757031e+05
    1.5057205223e-02    1.0196916406e+05
    1.5080772340e-02    1.0200246875e+05
    1.5104367398e-02    1.0202175000e+05
    1.5127992257e-02    1.0203227344e+05
    1.5151646920e-02    1.0202771094e+05
    1.5175330453e-02    1.0200484375e+05
    1.5199041925e-02    1.0197266406e+05
    1.5222782269e-02    1.0194239844e+05
    1.5246548690e-02    1.0189806250e+05
    1.5270343982e-02    1.0185121094e+05
    1.5294168144e-02    1.0180167969e+05
    1.5318016522e-02    1.0175324219e+05
    1.5341891907e-02    1.0170164844e+05
    1.5365792438e-02    1.0164916406e+05
    1.5389721841e-02    1.0159160156e+05
    1.5413676389e-02    1.0153171094e+05
    1.5437657945e-02    1.0147482031e+05
    1.5461664647e-02    1.0141446875e+05
    1.5485695563e-02    1.0136067969e+05
    1.5509752557e-02    1.0130799219e+05
    1.5533835627e-02    1.0125986719e+05
    1.5557944775e-02    1.0121671875e+05
    1.5582079068e-02    1.0118182031e+05
    1.5606240369e-02    1.0115702344e+05
    1.5630424023e-02    1.0114333594e+05
    1.5654634684e-02    1.0112988281e+05
    1.5678871423e-02    1.0112764844e+05
    1.5703132376e-02    1.0112810156e+05
    1.5727419406e-02    1.0113902344e+05
    1.5751728788e-02    1.0115164844e+05
    1.5776060522e-02    1.0116768750e+05
    1.5800418332e-02    1.0119689844e+05
    1.5824800357e-02    1.0121986719e+05
    1.5849204734e-02    1.0125287500e+05
    1.5873633325e-02    1.0128221094e+05
    1.5898084268e-02    1.0131644531e+05
    1.5922557563e-02    1.0135971094e+05
    1.5947058797e-02    1.0139515625e+05
    1.5971582383e-02    1.0142393750e+05
    1.5996130183e-02    1.0144650781e+05
    1.6020702198e-02    1.0146671094e+05
    1.6045298427e-02    1.0148033594e+05
    1.6069920734e-02    1.0148597656e+05
    1.6094569117e-02    1.0148064844e+05
    1.6119243577e-02    1.0147465625e+05
    1.6143942252e-02    1.0146167969e+05
    1.6168667004e-02    1.0143685156e+05
    1.6193419695e-02    1.0140412500e+05
    1.6218200326e-02    1.0137040625e+05
    1.6243007034e-02    1.0132586719e+05
    1.6267839819e-02    1.0127510156e+05
    1.6292702407e-02    1.0121377344e+05
    1.6317596659e-02    1.0114737500e+05
    1.6342513263e-02    1.0107839844e+05
    1.6367461532e-02    1.0100150000e+05
    1.6392435879e-02    1.0093428125e+05
    1.6417443752e-02    1.0086121094e+05
    1.6442479566e-02    1.0078697656e+05
    1.6467543319e-02    1.0072625781e+05
    1.6492636874e-02    1.0065785156e+05
    1.6517756507e-02    1.0059263281e+05
    1.6542907804e-02    1.0053803125e+05
    1.6568088904e-02    1.0049043750e+05
    1.6593271866e-02    1.0044743750e+05
    1.6618426889e-02    1.0041319531e+05
    1.6643559560e-02    1.0039283594e+05
    1.6668669879e-02    1.0037266406e+05
    1.6693757847e-02    1.0036460156e+05
    1.6718825325e-02    1.0035518750e+05
    1.6743874177e-02    1.0035135156e+05
    1.6768900678e-02    1.0035530469e+05
    1.6793908551e-02    1.0035661719e+05
    1.6818899661e-02    1.0035696094e+05
    1.6843874007e-02    1.0036049219e+05
    1.6868829727e-02    1.0035678906e+05
    1.6893770546e-02    1.0035477344e+05
    1.6918692738e-02    1.0034972656e+05
    1.6943598166e-02    1.0034106250e+05
    1.6968490556e-02    1.0032263281e+05
    1.6993366182e-02    1.0030596094e+05
    1.7018226907e-02    1.0027682031e+05
    1.7043072730e-02    1.0025453125e+05
    1.7067901790e-02    1.0023047656e+05
    1.7092714086e-02    1.0020813281e+05
    1.7117511481e-02    1.0018094531e+05
    1.7142292112e-02    1.0015431250e+05
    1.7167057842e-02    1.0013271094e+05
    1.7191808671e-02    1.0011082031e+05
    1.7216544598e-02    1.0009060156e+05
    1.7241263762e-02    1.0008210156e+05
    1.7265968025e-02    1.0007988281e+05
    1.7290659249e-02    1.0007953906e+05
    1.7315333709e-02    1.0008561719e+05
    1.7339993268e-02    1.0009041406e+05
    1.7364639789e-02    1.0010788281e+05
    1.7389267683e-02    1.0012438281e+05
    1.7413880676e-02    1.0014310156e+05
    1.7438478768e-02    1.0016285156e+05
    1.7463061959e-02    1.0018083594e+05
    1.7487626523e-02    1.0020574219e+05
    1.7512176186e-02    1.0021624219e+05
    1.7536709085e-02    1.0022891406e+05
    1.7561223358e-02    1.0024474219e+05
    1.7585720867e-02    1.0025650000e+05
    1.7610201612e-02    1.0026291406e+05
    1.7634663731e-02    1.0027967969e+05
    1.7659107223e-02    1.0028131250e+05
    1.7683532089e-02    1.0028132031e+05
    1.7707940191e-02    1.0028177344e+05
    1.7732329667e-02    1.0027902344e+05
    1.7756698653e-02    1.0028113281e+05
    1.7781050876e-02    1.0027816406e+05
    1.7805384472e-02    1.0027331250e+05
    1.7829699442e-02    1.0026660156e+05
    1.7853999510e-02    1.0025316406e+05
    1.7878280953e-02    1.0024088281e+05
    1.7902545631e-02    1.0022966406e+05
    1.7926793545e-02    1.0021149219e+05
    1.7951028422e-02    1.0019064844e+05
    1.7975246534e-02    1.0016662500e+05
    1.7999447882e-02    1.0013965625e+05
    1.8023636192e-02    1.0010571094e+05
    1.8047811463e-02    1.0008115625e+05
    1.8071975559e-02    1.0005739844e+05
    1.8096126616e-02    1.0003941406e+05
    1.8120266497e-02    1.0002700000e+05
    1.8144397065e-02    1.0002318750e+05
    1.8168520182e-02    1.0001817969e+05
    1.8192630261e-02    1.0002735156e+05
    1.8216732889e-02    1.0004428906e+05
    1.8240824342e-02    1.0006964844e+05
    1.8264908344e-02    1.0010612500e+05
    1.8288983032e-02    1.0014003906e+05
    1.8313048407e-02    1.0018646875e+05
    1.8337102607e-02    1.0023839844e+05
    1.8361147493e-02    1.0030277344e+05
    1.8385183066e-02    1.0036702344e+05
    1.8409207463e-02    1.0044667969e+05
    1.8433224410e-02    1.0051358594e+05
    1.8457230181e-02    1.0058372656e+05
    1.8481226638e-02    1.0064560156e+05
    1.8505210057e-02    1.0070328906e+05
    1.8529184163e-02    1.0076416406e+05
    1.8553148955e-02    1.0081085156e+05
    1.8577100709e-02    1.0085633594e+05
    1.8601041287e-02    1.0089133594e+05
    1.8624972552e-02    1.0091764844e+05
    1.8648892641e-02    1.0093637500e+05
    1.8672801554e-02    1.0096158594e+05
    1.8696699291e-02    1.0097402344e+05
    1.8720587716e-02    1.0098667969e+05
    1.8744463101e-02    1.0100313281e+05
    1.8768329173e-02    1.0102182031e+05
    1.8792184070e-02    1.0104591406e+05
    1.8816027790e-02    1.0108319531e+05
    1.8839860335e-02    1.0113130469e+05
    1.8863683566e-02    1.0119200781e+05
    1.8887493759e-02    1.0126238281e+05
    1.8911294639e-02    1.0135377344e+05
    1.8935086206e-02    1.0145306250e+05
    1.8958866596e-02    1.0157228906e+05
    1.8982635811e-02    1.0170300781e+05
    1.9006397575e-02    1.0184427344e+05
    1.9030146301e-02    1.0200372656e+05
    1.9053885713e-02    1.0217749219e+05
    1.9077615812e-02    1.0235385156e+05
    1.9101334736e-02    1.0254584375e+05
    1.9125042483e-02    1.0273660156e+05
    1.9148740917e-02    1.0292731250e+05
    1.9172428176e-02    1.0311321094e+05
    1.9196104258e-02    1.0328696094e+05
    1.9219771028e-02    1.0345140625e+05
    1.9243424758e-02    1.0358784375e+05
    1.9267069176e-02    1.0369902344e+05
    1.9290700555e-02    1.0378481250e+05
    1.9314322621e-02    1.0383489844e+05
    1.9337931648e-02    1.0384653906e+05
    1.9361529499e-02    1.0381944531e+05
    1.9385114312e-02    1.0376002344e+05
    1.9408687949e-02    1.0366386719e+05
    1.9432250410e-02    1.0353019531e+05
    1.9455801696e-02    1.0337658594e+05
    1.9479339942e-02    1.0318837500e+05
    1.9502865151e-02    1.0298411719e+05
    1.9526379183e-02    1.0275933594e+05
    1.9549878314e-02    1.0251163281e+05
    1.9573366269e-02    1.0226753125e+05
    1.9596841186e-02    1.0203277344e+05
    1.9620303065e-02    1.0182509375e+05
    1.9643751904e-02    1.0164530469e+05
    1.9667187706e-02    1.0150025781e+05
    1.9690606743e-02    1.0138067969e+05
    1.9714014605e-02    1.0128935156e+05
    1.9737409428e-02    1.0122171875e+05
    1.9760791212e-02    1.0117666406e+05
    1.9784159958e-02    1.0114652344e+05
    1.9807513803e-02    1.0113281250e+05
    1.9830854610e-02    1.0112327344e+05
    1.9854182377e-02    1.0112933594e+05
    1.9877497107e-02    1.0113912500e+05
    1.9900798798e-02    1.0115221094e+05
    1.9924087450e-02    1.0117047656e+05
    1.9947361201e-02    1.0118947656e+05
    1.9970623776e-02    1.0120636719e+05
    1.9993871450e-02    1.0121725781e+05
    2.0017107949e-02    1.0121953906e+05
    2.0040329546e-02    1.0123450781e+05
    2.0063538104e-02    1.0124500781e+05
    2.0086731762e-02    1.0126005469e+05
    2.0109914243e-02    1.0127508594e+05
    2.0133081824e-02    1.0129458594e+05
    2.0156236365e-02    1.0131885156e+05
    2.0179376006e-02    1.0134668750e+05
    2.0202504471e-02    1.0137818750e+05
    2.0225618035e-02    1.0141364844e+05
    2.0248720422e-02    1.0145768750e+05
    2.0271807909e-02    1.0150971094e+05
    2.0294882357e-02    1.0156677344e+05
    2.0317947492e-02    1.0163606250e+05
    2.0340997726e-02    1.0170621094e+05
    2.0364036784e-02    1.0178458594e+05
    2.0387060940e-02    1.0185250781e+05
    2.0410073921e-02    1.0192877344e+05
    2.0433073863e-02    1.0200399219e+05
    2.0456060767e-02    1.0207267969e+05
    2.0479036495e-02    1.0214016406e+05
    2.0501999184e-02    1.0220486719e+05
    2.0524948835e-02    1.0226738281e+05
    2.0547885448e-02    1.0233214844e+05
    2.0570809022e-02    1.0239141406e+05
    2.0593719557e-02    1.0245227344e+05
    2.0616617054e-02    1.0250500000e+05
    2.0639499649e-02    1.0256783594e+05
    2.0662369207e-02    1.0261106250e+05
    2.0685223863e-02    1.0266237500e+05
    2.0708063617e-02    1.0270050000e+05
    2.0730890334e-02    1.0274353906e+05
    2.0753700286e-02    1.0278115625e+05
    2.0776495337e-02    1.0281150000e+05
    2.0799275488e-02    1.0283844531e+05
    2.0822042599e-02    1.0285130469e+05
    2.0844791085e-02    1.0285885156e+05
    2.0867524669e-02    1.0285552344e+05
    2.0890241489e-02    1.0285252344e+05
    2.0912945271e-02    1.0284293750e+05
    2.0935632288e-02    1.0282207031e+05
    2.0958306268e-02    1.0280206250e+05
    2.0980965346e-02    1.0277016406e+05
    2.1003607661e-02    1.0272686719e+05
    2.1026238799e-02    1.0268197656e+05
    2.1048855036e-02    1.0263671094e+05
    2.1071458235e-02    1.0258625000e+05
    2.1094048396e-02    1.0252741406e+05
    2.1116625518e-02    1.0246343750e+05
    2.1139191464e-02    1.0239644531e+05
    2.1161744371e-02    1.0232592969e+05
    2.1184286103e-02    1.0225350781e+05
    2.1206818521e-02    1.0218885156e+05
    2.1229337901e-02    1.0211275000e+05
    2.1251846105e-02    1.0204311719e+05
    2.1274344996e-02    1.0197475000e+05
    2.1296832711e-02    1.0191252344e+05
    2.1319312975e-02    1.0185736719e+05
    2.1341778338e-02    1.0181308594e+05
    2.1364232525e-02    1.0177822656e+05
    2.1386675537e-02    1.0175235156e+05
    2.1409107372e-02    1.0173027344e+05
    2.1431528032e-02    1.0171652344e+05
    2.1453931928e-02    1.0170546875e+05
    2.1476324648e-02    1.0170189844e+05
    2.1498700604e-02    1.0170392969e+05
    2.1521063522e-02    1.0171964844e+05
    2.1543409675e-02    1.0173509375e+05
    2.1565740928e-02    1.0174950781e+05
    2.1588053554e-02    1.0176346094e+05
    2.1610351279e-02    1.0177721094e+05
    2.1632634103e-02    1.0179128906e+05
    2.1654898301e-02    1.0179839844e+05
    2.1677147597e-02    1.0180512500e+05
    2.1699378267e-02    1.0181108594e+05
    2.1721594036e-02    1.0181716406e+05
    2.1743793041e-02    1.0182085156e+05
    2.1765975282e-02    1.0181847656e+05
    2.1788140759e-02    1.0181059375e+05
    2.1810289472e-02    1.0180684375e+05
    2.1832419559e-02    1.0180067969e+05
    2.1854531020e-02    1.0179903906e+05
    2.1876627579e-02    1.0179767969e+05
    2.1898705512e-02    1.0179647656e+05
    2.1920768544e-02    1.0179662500e+05
    2.1942811087e-02    1.0179481250e+05
    2.1964838728e-02    1.0179934375e+05
    2.1986849606e-02    1.0180430469e+05
    2.2008845583e-02    1.0180050781e+05
    2.2030822933e-02    1.0179921094e+05
    2.2052785382e-02    1.0180052344e+05
    2.2074732929e-02    1.0179975781e+05
    2.2096665576e-02    1.0179656250e+05
    2.2118583322e-02    1.0179552344e+05
    2.2140489891e-02    1.0178506250e+05
    2.2162377834e-02    1.0178125781e+05
    2.2184254602e-02    1.0177836719e+05
    2.2206118330e-02    1.0176953906e+05
    2.2227969021e-02    1.0175978125e+05
    2.2249806672e-02    1.0175530469e+05
    2.2271629423e-02    1.0173997656e+05
    2.2293440998e-02    1.0173322656e+05
    2.2315241396e-02    1.0172622656e+05
    2.2337028757e-02    1.0171666406e+05
    2.2358803079e-02    1.0171125781e+05
    2.2380566224e-02    1.0170222656e+05
    2.2402318195e-02    1.0169171094e+05
    2.2424057126e-02    1.0168664844e+05
    2.2445784882e-02    1.0167580469e+05
    2.2467501462e-02    1.0167171875e+05
    2.2489206865e-02    1.0166540625e+05
    2.2510899231e-02    1.0165771094e+05
    2.2532582283e-02    1.0164277344e+05
    2.2554252297e-02    1.0162902344e+05
    2.2575911134e-02    1.0161246875e+05
    2.2597560659e-02    1.0160103125e+05
    2.2619199008e-02    1.0158466406e+05
    2.2640828043e-02    1.0157764844e+05
    2.2662445903e-02    1.0156716406e+05
    2.2684050724e-02    1.0155428906e+05
    2.2705646232e-02    1.0153885156e+05
    2.2727232426e-02    1.0152556250e+05
    2.2748809308e-02    1.0150978906e+05
    2.2770375013e-02    1.0150189844e+05
    2.2791929543e-02    1.0149762500e+05
    2.2813472897e-02    1.0148543750e+05
    2.2835006937e-02    1.0147809375e+05
    2.2856531665e-02    1.0146897656e+05
    2.2878047079e-02    1.0146622656e+05
    2.2899549454e-02    1.0146402344e+05
    2.2921044379e-02    1.0146628906e+05
    2.2942528129e-02    1.0147303125e+05
    2.2964000702e-02    1.0147378906e+05
    2.2985465825e-02    1.0147362500e+05
    2.3006917909e-02    1.0146906250e+05
    2.3028360680e-02    1.0146481250e+05
    2.3049792275e-02    1.0147031250e+05
    2.3071214557e-02    1.0147238281e+05
    2.3092625663e-02    1.0147616406e+05
    2.3114029318e-02    1.0148558594e+05
    2.3135419935e-02    1.0149433594e+05
    2.3156799376e-02    1.0149050000e+05
    2.3178169504e-02    1.0148869531e+05
    2.3199530318e-02    1.0149049219e+05
    2.3220879957e-02    1.0149367969e+05
    2.3242218420e-02    1.0149928125e+05
    2.3263547570e-02    1.0149697656e+05
    2.3284865543e-02    1.0149214844e+05
    2.3306174204e-02    1.0149433594e+05
    2.3327469826e-02    1.0149322656e+05
    2.3348756135e-02    1.0149577344e+05
    2.3370031267e-02    1.0150232031e+05
    2.3391297087e-02    1.0150350000e+05
    2.3412553594e-02    1.0151183594e+05
    2.3433798924e-02    1.0151865625e+05
    2.3455033079e-02    1.0151425781e+05
    2.3476256058e-02    1.0151703906e+05
    2.3497469723e-02    1.0152346875e+05
    2.3518672213e-02    1.0153228125e+05
    2.3539865389e-02    1.0153546875e+05
    2.3561049253e-02    1.0153958594e+05
    2.3582221940e-02    1.0153684375e+05
    2.3603385314e-02    1.0153965625e+05
    2.3624535650e-02    1.0154466406e+05
    2.3645676672e-02    1.0154512500e+05
    2.3666808382e-02    1.0154767969e+05
    2.3687927052e-02    1.0154431250e+05
    2.3709038273e-02    1.0154133594e+05
    2.3730138317e-02    1.0154138281e+05
    2.3751227185e-02    1.0154225000e+05
    2.3772306740e-02    1.0154042969e+05
    2.3793375120e-02    1.0152891406e+05
    2.3814432323e-02    1.0152612500e+05
    2.3835480213e-02    1.0152552344e+05
    2.3856516927e-02    1.0152372656e+05
    2.3877544329e-02    1.0152059375e+05
    2.3898560554e-02    1.0151835156e+05
    2.3919565603e-02    1.0151710156e+05
    2.3940561339e-02    1.0151336719e+05
    2.3961545900e-02    1.0151293750e+05
    2.3982519284e-02    1.0151243750e+05
    2.4003483355e-02    1.0150842969e+05
    2.4024436250e-02    1.0150650000e+05
    2.4045377970e-02    1.0149971094e+05
    2.4066310376e-02    1.0149746094e+05
    2.4087233469e-02    1.0149640625e+05
    2.4108145386e-02    1.0149327344e+05
    2.4129044265e-02    1.0148669531e+05
    2.4149935693e-02    1.0148446875e+05
    2.4170814082e-02    1.0148319531e+05
    2.4191683158e-02    1.0148172656e+05
    2.4212542921e-02    1.0147630469e+05
    2.4233391508e-02    1.0146435156e+05
    2.4254228920e-02    1.0145782031e+05
    2.4275057018e-02    1.0144772656e+05
    2.4295873940e-02    1.0144474219e+05
    2.4316681549e-02    1.0144085156e+05
    2.4337477982e-02    1.0144633594e+05
    2.4358265102e-02    1.0144061719e+05
    2.4379042909e-02    1.0143605469e+05
    2.4399809539e-02    1.0142903906e+05
    2.4420566857e-02    1.0142694531e+05
    2.4441312999e-02    1.0143108594e+05
    2.4462047964e-02    1.0143550781e+05
    2.4482775480e-02    1.0143353906e+05
    2.4503491819e-02    1.0143408594e+05
    2.4524198845e-02    1.0143113281e+05
    2.4544894695e-02    1.0143282031e+05
    2.4565581232e-02    1.0143239844e+05
    2.4586258456e-02    1.0143685156e+05
    2.4606924504e-02    1.0143856250e+05
    2.4627581239e-02    1.0144091406e+05
    2.4648228660e-02    1.0144824219e+05
    2.4668866768e-02    1.0145510156e+05
    2.4689495564e-02    1.0145983594e+05
    2.4710113183e-02    1.0146282031e+05
    2.4730721489e-02    1.0146752344e+05
    2.4751318619e-02    1.0147835156e+05
    2.4771906435e-02    1.0148546094e+05
    2.4792486802e-02    1.0149522656e+05
    2.4813055992e-02    1.0150925000e+05
    2.4833614007e-02    1.0151833594e+05
    2.4854162708e-02    1.0153009375e+05
    2.4874702096e-02    1.0154603906e+05
    2.4895232171e-02    1.0155690625e+05
    2.4915752932e-02    1.0156796094e+05
    2.4936262518e-02    1.0157606250e+05
    2.4956764653e-02    1.0159013281e+05
    2.4977253750e-02    1.0159874219e+05
    2.4997735396e-02    1.0160772656e+05
    2.5018205866e-02    1.0162610156e+05
    2.5038668886e-02    1.0163658594e+05
    2.5059120730e-02    1.0164584375e+05
    2.5079563260e-02    1.0165250781e+05
    2.5099996477e-02    1.0165160156e+05
    2.5120420381e-02    1.0165215625e+05
    2.5140833110e-02    1.0165081250e+05
    2.5161236525e-02    1.0164836719e+05
    2.5181630626e-02    1.0164347656e+05
    2.5202017277e-02    1.0163025000e+05
    2.5222390890e-02    1.0161791406e+05
    2.5242757052e-02    1.0160328906e+05
    2.5263112038e-02    1.0157053125e+05
    2.5283459574e-02    1.0154661719e+05
    2.5303795934e-02    1.0151422656e+05
    2.5324124843e-02    1.0148063281e+05
    2.5344440714e-02    1.0144787500e+05
    2.5364749134e-02    1.0140500781e+05
    2.5385048240e-02    1.0137152344e+05
    2.5405339897e-02    1.0133622656e+05
    2.5425618514e-02    1.0130433594e+05
    2.5445887819e-02    1.0127155469e+05
    2.5466147810e-02    1.0124980469e+05
    2.5486400351e-02    1.0122827344e+05
    2.5506639853e-02    1.0120952344e+05
    2.5526873767e-02    1.0120000781e+05
    2.5547094643e-02    1.0119427344e+05
    2.5567308068e-02    1.0120583594e+05
    2.5587510318e-02    1.0121796094e+05
    2.5607703254e-02    1.0124239844e+05
    2.5627886876e-02    1.0126468750e+05
    2.5648061186e-02    1.0129033594e+05
    2.5668226182e-02    1.0131912500e+05
    2.5688380003e-02    1.0135102344e+05
    2.5708526373e-02    1.0138243750e+05
    2.5728661567e-02    1.0141390625e+05
    2.5748789310e-02    1.0144535156e+05
    2.5768904015e-02    1.0147408594e+05
    2.5789011270e-02    1.0150100781e+05
    2.5809109211e-02    1.0153237500e+05
    2.5829195976e-02    1.0155796094e+05
    2.5849273428e-02    1.0157603125e+05
    2.5869343430e-02    1.0159902344e+05
    2.5889402255e-02    1.0161028125e+05
    2.5909451768e-02    1.0162961719e+05
    2.5929493830e-02    1.0164883594e+05
    2.5949522853e-02    1.0166462500e+05
    2.5969544426e-02    1.0168028906e+05
    2.5989556685e-02    1.0169791406e+05
    2.6009559631e-02    1.0170242969e+05
    2.6029553264e-02    1.0171797656e+05
    2.6049537584e-02    1.0173458594e+05
    2.6069512591e-02    1.0174764844e+05
    2.6089478284e-02    1.0176053906e+05
    2.6109432802e-02    1.0177322656e+05
    2.6129379869e-02    1.0178875781e+05
    2.6149315760e-02    1.0180297656e+05
    2.6169244200e-02    1.0180649219e+05
    2.6189163327e-02    1.0181649219e+05
    2.6209073141e-02    1.0182960156e+05
    2.6228975505e-02    1.0183881250e+05
    2.6248866692e-02    1.0184402344e+05
    2.6268748567e-02    1.0185057031e+05
    2.6288621128e-02    1.0184971094e+05
    2.6308484375e-02    1.0186089844e+05
    2.6328338310e-02    1.0186218750e+05
    2.6348184794e-02    1.0186149219e+05
    2.6368021965e-02    1.0186460156e+05
    2.6387847960e-02    1.0186655469e+05
    2.6407664642e-02    1.0186191406e+05
    2.6427472010e-02    1.0185875781e+05
    2.6447271928e-02    1.0186319531e+05
    2.6467062533e-02    1.0186284375e+05
    2.6486843824e-02    1.0186919531e+05
    2.6506617665e-02    1.0186846094e+05
    2.6526380330e-02    1.0186710156e+05
    2.6546133682e-02    1.0186564844e+05
    2.6565877721e-02    1.0186587500e+05
    2.6585612446e-02    1.0186835156e+05
    2.6605339721e-02    1.0186586719e+05
    2.6625057682e-02    1.0186446875e+05
    2.6644766331e-02    1.0186492969e+05
    2.6664465666e-02    1.0186621094e+05
    2.6684155688e-02    1.0185921094e+05
    2.6703836396e-02    1.0185868750e+05
    2.6723509654e-02    1.0185425000e+05
    2.6743173599e-02    1.0184438281e+05
    2.6762828231e-02    1.0184053125e+05
    2.6782475412e-02    1.0182659375e+05
    2.6802113280e-02    1.0181402344e+05
    2.6821739972e-02    1.0179821094e+05
    2.6841359213e-02    1.0178833594e+05
    2.6860967278e-02    1.0177560156e+05
    2.6880569756e-02    1.0176555469e+05
    2.6900164783e-02    1.0174778906e+05
    2.6919748634e-02    1.0173047656e+05
    2.6939325035e-02    1.0172166406e+05
    2.6958892122e-02    1.0170090625e+05
    2.6978449896e-02    1.0169097656e+05
    2.6997998357e-02    1.0167362500e+05
    2.7017539367e-02    1.0166157031e+05
    2.7037071064e-02    1.0164478906e+05
    2.7056595311e-02    1.0163683594e+05
    2.7076110244e-02    1.0162699219e+05
    2.7095617726e-02    1.0161641406e+05
    2.7115115896e-02    1.0161410156e+05
    2.7134604752e-02    1.0160549219e+05
    2.7154086158e-02    1.0159810156e+05
    2.7173558250e-02    1.0158867969e+05
    2.7193021029e-02    1.0158802344e+05
    2.7212476358e-02    1.0159064844e+05
    2.7231922373e-02    1.0159464844e+05
    2.7251357213e-02    1.0160433594e+05
    2.7270786464e-02    1.0160400781e+05
    2.7290204540e-02    1.0161225000e+05
    2.7309613302e-02    1.0160846875e+05
    2.7329014614e-02    1.0161285156e+05
    2.7348404750e-02    1.0161212500e+05
    2.7367785573e-02    1.0161900781e+05
    2.7387158945e-02    1.0162543750e+05
    2.7406521142e-02    1.0163258594e+05
    2.7425874025e-02    1.0163785156e+05
    2.7445219457e-02    1.0164609375e+05
    2.7464553714e-02    1.0164657031e+05
    2.7483878657e-02    1.0164728906e+05
    2.7503194287e-02    1.0166078906e+05
    2.7522502467e-02    1.0166308594e+05
    2.7541799471e-02    1.0166541406e+05
    2.7561087161e-02    1.0166771094e+05
    2.7580365539e-02    1.0167012500e+05
    2.7599634603e-02    1.0167278906e+05
    2.7618894354e-02    1.0168021094e+05
    2.7638144791e-02    1.0168936719e+05
    2.7657385916e-02    1.0169381250e+05
    2.7676619589e-02    1.0169278125e+05
    2.7695843950e-02    1.0170071094e+05
    2.7715058997e-02    1.0170444531e+05
    2.7734262869e-02    1.0171064844e+05
    2.7753459290e-02    1.0171281250e+05
    2.7772648260e-02    1.0172444531e+05
    2.7791827917e-02    1.0173294531e+05
    2.7810998261e-02    1.0173907031e+05
    2.7830159292e-02    1.0174512500e+05
    2.7849311009e-02    1.0174883594e+05
    2.7868455276e-02    1.0175608594e+05
    2.7887590230e-02    1.0176125781e+05
    2.7906717733e-02    1.0176675781e+05
    2.7925835922e-02    1.0177252344e+05
    2.7944946662e-02    1.0178753906e+05
    2.7964048088e-02    1.0178550781e+05
    2.7983140200e-02    1.0179010156e+05
    2.8002224863e-02    1.0179589844e+05
    2.8021300212e-02    1.0180290625e+05
    2.8040368110e-02    1.0180763281e+05
    2.8059426695e-02    1.0181340625e+05
    2.8078475967e-02    1.0181908594e+05
    2.8097519651e-02    1.0182466406e+05
    2.8116554022e-02    1.0183003906e+05
    2.8135580942e-02    1.0183607031e+05
    2.8154598549e-02    1.0183828906e+05
    2.8173606843e-02    1.0183410156e+05
    2.8192607686e-02    1.0183646875e+05
    2.8211599216e-02    1.0183766406e+05
    2.8230583295e-02    1.0183987500e+05
    2.8249559924e-02    1.0183865625e+05
    2.8268527240e-02    1.0184446094e+05
    2.8287487105e-02    1.0184532031e+05
    2.8306435794e-02    1.0184597656e+05
    2.8325378895e-02    1.0185010156e+05
    2.8344312683e-02    1.0185662500e+05
    2.8363237157e-02    1.0186322656e+05
    2.8382156044e-02    1.0185952344e+05
    2.8401065618e-02    1.0186233594e+05
    2.8419965878e-02    1.0186358594e+05
    2.8438858688e-02    1.0185496094e+05
    2.8457742184e-02    1.0185614844e+05
    2.8476616368e-02    1.0185599219e+05
    2.8495483100e-02    1.0185244531e+05
    2.8514338657e-02    1.0186035156e+05
    2.8533160686e-02    1.0186185156e+05
    2.8551930562e-02    1.0186381250e+05
    2.8570635244e-02    1.0187047656e+05
    2.8589271009e-02    1.0187289844e+05
    2.8607837856e-02    1.0187280469e+05
    2.8626350686e-02    1.0187258594e+05
    2.8644818813e-02    1.0187683594e+05
    2.8663259000e-02    1.0187762500e+05
    2.8681686148e-02    1.0187950000e+05
    2.8700113297e-02    1.0188238281e+05
    2.8718546033e-02    1.0188391406e+05
    2.8736986220e-02    1.0188081250e+05
    2.8755431995e-02    1.0187857031e+05
    2.8773877770e-02    1.0187871094e+05
    2.8792314231e-02    1.0188337500e+05
    2.8810730204e-02    1.0188831250e+05
    2.8829116374e-02    1.0188846094e+05
    2.8847465292e-02    1.0188852344e+05
    2.8865773231e-02    1.0189074219e+05
    2.8884036466e-02    1.0188716406e+05
    2.8902258724e-02    1.0188196094e+05
    2.8920443729e-02    1.0188246875e+05
    2.8938598931e-02    1.0188411719e+05
    2.8956729919e-02    1.0188335156e+05
    2.8974846005e-02    1.0188387500e+05
    2.8992949054e-02    1.0188675781e+05
    2.9011042789e-02    1.0188522656e+05
    2.9029129073e-02    1.0188583594e+05
    2.9047204182e-02    1.0188511719e+05
    2.9065268114e-02    1.0188424219e+05
    2.9083315283e-02    1.0188434375e+05
    2.9101338238e-02    1.0188431250e+05
    2.9119335115e-02    1.0188410156e+05
    2.9137304053e-02    1.0187921094e+05
    2.9155241325e-02    1.0187859375e+05
    2.9173148796e-02    1.0187324219e+05
    2.9191024601e-02    1.0187271094e+05
    2.9208874330e-02    1.0187896875e+05
    2.9226697981e-02    1.0187267969e+05
    2.9244501144e-02    1.0187208594e+05
    2.9262285680e-02    1.0186812500e+05
    2.9280053452e-02    1.0186737500e+05
    2.9297806323e-02    1.0187032031e+05
    2.9315544292e-02    1.0187530469e+05
    2.9333265498e-02    1.0187011719e+05
    2.9350971803e-02    1.0186453906e+05
    2.9368655756e-02    1.0186362500e+05
    2.9386319220e-02    1.0186268750e+05
    2.9403960332e-02    1.0186190625e+05
    2.9421577230e-02    1.0186682031e+05
    2.9439168051e-02    1.0186053906e+05
    2.9456734657e-02    1.0185984375e+05
    2.9474277049e-02    1.0186024219e+05
    2.9491795227e-02    1.0186065625e+05
    2.9509292915e-02    1.0186008594e+05
    2.9526771978e-02    1.0185971875e+05
    2.9544232413e-02    1.0186871875e+05
    2.9561674222e-02    1.0186658594e+05
    2.9579099268e-02    1.0186196094e+05
    2.9596509412e-02    1.0186552344e+05
    2.9613900930e-02    1.0186916406e+05
    2.9631273821e-02    1.0187430469e+05
    2.9648626223e-02    1.0187493750e+05
    2.9665958136e-02    1.0187580469e+05
    2.9683271423e-02    1.0187680469e+05
    2.9700560495e-02    1.0188031250e+05
    2.9717829078e-02    1.0188989844e+05
    2.9735075310e-02    1.0188814844e+05
    2.9752301052e-02    1.0188712500e+05
    2.9769508168e-02    1.0188853125e+05
    2.9786696658e-02    1.0189708594e+05
    2.9803866521e-02    1.0190002344e+05
    2.9821017757e-02    1.0190306250e+05
    2.9838152230e-02    1.0190499219e+05
    2.9855269939e-02    1.0190586719e+05
    2.9872370884e-02    1.0190914844e+05
    2.9889453202e-02    1.0191135156e+05
    2.9906518757e-02    1.0191372656e+05
    2.9923565686e-02    1.0191619531e+05
    2.9940593988e-02    1.0191880469e+05
    2.9957601801e-02    1.0192375781e+05
    2.9974590987e-02    1.0192641406e+05
    2.9991561547e-02    1.0192674219e+05
    3.0008511618e-02    1.0192928906e+05
    3.0025444925e-02    1.0193071094e+05
    3.0042361468e-02    1.0193424219e+05
    3.0059259385e-02    1.0193628906e+05
    3.0076142401e-02    1.0193110156e+05
    3.0093006790e-02    1.0192641406e+05
    3.0109854415e-02    1.0192750000e+05
    3.0126683414e-02    1.0192967969e+05
    3.0143497512e-02    1.0192733594e+05
    3.0160292983e-02    1.0192952344e+05
    3.0177071691e-02    1.0193060156e+05
    3.0193833634e-02    1.0193168750e+05
    3.0210576952e-02    1.0193510156e+05
    3.0227303505e-02    1.0193603125e+05
    3.0244011432e-02    1.0193337500e+05
    3.0260702595e-02    1.0193302344e+05
    3.0277376994e-02    1.0193357031e+05
    3.0294034630e-02    1.0193388281e+05
    3.0310675502e-02    1.0193071094e+05
    3.0327299610e-02    1.0192485156e+05
    3.0343905091e-02    1.0192466406e+05
    3.0360495672e-02    1.0192431250e+05
    3.0377071351e-02    1.0192415625e+05
    3.0393628404e-02    1.0192299219e+05
    3.0410168692e-02    1.0193342969e+05
    3.0426690355e-02    1.0193140625e+05
    3.0443195254e-02    1.0193394531e+05
    3.0459685251e-02    1.0193200000e+05
    3.0476156622e-02    1.0193458594e+05
    3.0492611229e-02    1.0193493750e+05
    3.0509050936e-02    1.0193303906e+05
    3.0525473878e-02    1.0193344531e+05
    3.0541881919e-02    1.0193610156e+05
    3.0558273196e-02    1.0193542969e+05
    3.0574647710e-02    1.0193481250e+05
    3.0591005459e-02    1.0193540625e+05
    3.0607348308e-02    1.0194208594e+05
    3.0623674393e-02    1.0194427344e+05
    3.0639985576e-02    1.0194546094e+05
    3.0656279996e-02    1.0195118750e+05
    3.0672557652e-02    1.0195007031e+05
    3.0688818544e-02    1.0194890625e+05
    3.0705062672e-02    1.0194999219e+05
    3.0721291900e-02    1.0195103906e+05
    3.0737506226e-02    1.0194769531e+05
    3.0753703788e-02    1.0194761719e+05
    3.0769886449e-02    1.0194874219e+05
    3.0786054209e-02    1.0195108594e+05
    3.0802207068e-02    1.0195930469e+05
    3.0818343163e-02    1.0195839844e+05
    3.0834466219e-02    1.0195613281e+05
    3.0850572512e-02    1.0195853125e+05
    3.0866663903e-02    1.0195957031e+05
    3.0882738531e-02    1.0195950781e+05
    3.0898798257e-02    1.0195938281e+05
    3.0914843082e-02    1.0196053906e+05
    3.0930871144e-02    1.0196408594e+05
    3.0946886167e-02    1.0196528906e+05
    3.0962884426e-02    1.0196650000e+05
    3.0978867784e-02    1.0196758594e+05
    3.0994836241e-02    1.0196842969e+05
    3.1010789797e-02    1.0196417969e+05
    3.1026728451e-02    1.0195978906e+05
    3.1042650342e-02    1.0195710156e+05
    3.1058559194e-02    1.0194966406e+05
    3.1074455008e-02    1.0194886719e+05
    3.1090334058e-02    1.0194803125e+05
    3.1106200069e-02    1.0194727344e+05
    3.1122051179e-02    1.0194644531e+05
    3.1137887388e-02    1.0194663281e+05
    3.1153710559e-02    1.0193947656e+05
    3.1169516966e-02    1.0193324219e+05
    3.1185310334e-02    1.0193107031e+05
    3.1201090664e-02    1.0192174219e+05
    3.1216854230e-02    1.0191916406e+05
    3.1232602894e-02    1.0191663281e+05
    3.1248336658e-02    1.0192128906e+05
    3.1264055520e-02    1.0191936719e+05
    3.1279761344e-02    1.0191872656e+05
    3.1295452267e-02    1.0191815625e+05
    3.1311132014e-02    1.0191536719e+05
    3.1326796860e-02    1.0191258594e+05
    3.1342446804e-02    1.0191105469e+05
    3.1358085573e-02    1.0191433594e+05
    3.1373709440e-02    1.0192052344e+05
    3.1389318407e-02    1.0192952344e+05
    3.1404916197e-02    1.0193005469e+05
    3.1420499086e-02    1.0194278125e+05
    3.1436067075e-02    1.0194711719e+05
    3.1451620162e-02    1.0195414844e+05
    3.1467158347e-02    1.0196421094e+05
    3.1482685357e-02    1.0197021875e+05
    3.1498193741e-02    1.0198602344e+05
    3.1513694674e-02    1.0199091406e+05
    3.1529176980e-02    1.0200447656e+05
    3.1544648111e-02    1.0201528906e+05
    3.1560108066e-02    1.0202527344e+05
    3.1575553119e-02    1.0203827344e+05
    3.1590986997e-02    1.0205135156e+05
    3.1606405973e-02    1.0205907031e+05
    3.1621813774e-02    1.0206453906e+05
    3.1637206674e-02    1.0207466406e+05
    3.1652588397e-02    1.0208252344e+05
    3.1667951494e-02    1.0209028906e+05
    3.1683307141e-02    1.0209564844e+05
    3.1698647887e-02    1.0210546094e+05
    3.1713977456e-02    1.0211044531e+05
    3.1729292125e-02    1.0211291406e+05
    3.1744595617e-02    1.0211580469e+05
    3.1759884208e-02    1.0211258594e+05
    3.1775161624e-02    1.0211572656e+05
    3.1790427864e-02    1.0211947656e+05
    3.1805675477e-02    1.0211460156e+05
    3.1820915639e-02    1.0211606250e+05
    3.1836140901e-02    1.0210996094e+05
    3.1851354986e-02    1.0210918750e+05
    3.1866557896e-02    1.0210764844e+05
    3.1881745905e-02    1.0210466406e+05
    3.1896922737e-02    1.0209760156e+05
    3.1912088394e-02    1.0209922656e+05
    3.1927239150e-02    1.0209258594e+05
    3.1942378730e-02    1.0208753906e+05
    3.1957507133e-02    1.0208688281e+05
    3.1972620636e-02    1.0207665625e+05
    3.1987726688e-02    1.0207528125e+05
    3.2002814114e-02    1.0207592969e+05
    3.2017890364e-02    1.0207171094e+05
    3.2032959163e-02    1.0206022656e+05
    3.2048013061e-02    1.0205966406e+05
    3.2063052058e-02    1.0204719531e+05
    3.2078083605e-02    1.0204134375e+05
    3.2093103975e-02    1.0203742969e+05
    3.2108109444e-02    1.0202869531e+05
    3.2123107463e-02    1.0202000781e+05
    3.2138090581e-02    1.0201833594e+05
    3.2153062522e-02    1.0201921094e+05
    3.2168023288e-02    1.0202077344e+05
    3.2182972878e-02    1.0201796094e+05
    3.2197911292e-02    1.0201652344e+05
    3.2212834805e-02    1.0201977344e+05
    3.2227750868e-02    1.0201755469e+05
    3.2242652029e-02    1.0201775000e+05
    3.2257542014e-02    1.0201814844e+05
    3.2272424549e-02    1.0201857031e+05
    3.2287292182e-02    1.0201688281e+05
    3.2302148640e-02    1.0201871094e+05
    3.2316997647e-02    1.0201619531e+05
    3.2331831753e-02    1.0201491406e+05
    3.2346658409e-02    1.0201371094e+05
    3.2361470163e-02    1.0201003906e+05
    3.2376270741e-02    1.0200878906e+05
    3.2391063869e-02    1.0201325000e+05
    3.2405842096e-02    1.0201102344e+05
    3.2420612872e-02    1.0201465625e+05
    3.2435368747e-02    1.0201135156e+05
    3.2450113446e-02    1.0200806250e+05
    3.2464850694e-02    1.0200572656e+05
    3.2479573041e-02    1.0200356250e+05
    3.2494287938e-02    1.0200941406e+05
    3.2508991659e-02    1.0200857031e+05
    3.2523684204e-02    1.0200564844e+05
    3.2538365573e-02    1.0200967969e+05
    3.2553035766e-02    1.0201660156e+05
    3.2567698509e-02    1.0201555469e+05
    3.2582346350e-02    1.0201464844e+05
    3.2596986741e-02    1.0201487500e+05
    3.2611619681e-02    1.0201496094e+05
    3.2626237720e-02    1.0201035156e+05
    3.2640848309e-02    1.0200524219e+05
    3.2655447721e-02    1.0200460156e+05
    3.2670035958e-02    1.0200512500e+05
    3.2684613019e-02    1.0200460156e+05
    3.2699178904e-02    1.0200418750e+05
    3.2713737339e-02    1.0200865625e+05
    3.2728284597e-02    1.0201190625e+05
    3.2742820680e-02    1.0201191406e+05
    3.2757349312e-02    1.0201188281e+05
    3.2771866769e-02    1.0201058594e+05
    3.2786373049e-02    1.0200209375e+05
    3.2800871879e-02    1.0200165625e+05
    3.2815355808e-02    1.0200141406e+05
    3.2829832286e-02    1.0201290625e+05
    3.2844301313e-02    1.0201315625e+05
    3.2858755440e-02    1.0201250000e+05
    3.2873202115e-02    1.0201207031e+05
    3.2887637615e-02    1.0201292969e+05
    3.2902065665e-02    1.0201510156e+05
    3.2916482538e-02    1.0201736719e+05
    3.2930891961e-02    1.0201853906e+05
    3.2945290208e-02    1.0201964844e+05
    3.2959677279e-02    1.0202518750e+05
    3.2974056900e-02    1.0202400000e+05
    3.2988425344e-02    1.0202265625e+05
    3.3002786338e-02    1.0202344531e+05
    3.3017136157e-02    1.0202428125e+05
    3.3031478524e-02    1.0202983594e+05
    3.3045809716e-02    1.0203071094e+05
    3.3060129732e-02    1.0202580469e+05
    3.3074442297e-02    1.0202785156e+05
    3.3088747412e-02    1.0202639844e+05
    3.3103041351e-02    1.0202941406e+05
    3.3117324114e-02    1.0203014844e+05
    3.3131599426e-02    1.0203084375e+05
    3.3145863563e-02    1.0203141406e+05
    3.3160120249e-02    1.0203200000e+05
    3.3174365759e-02    1.0203242969e+05
    3.3188603818e-02    1.0203278125e+05
    3.3202830702e-02    1.0203312500e+05
    3.3217050135e-02    1.0203225781e+05
    3.3231258392e-02    1.0203131250e+05
    3.3245459199e-02    1.0203153906e+05
    3.3259648830e-02    1.0203172656e+05
    3.3273831010e-02    1.0203414844e+05
    3.3288005739e-02    1.0203189844e+05
    3.3302169293e-02    1.0203182031e+05
    3.3316325396e-02    1.0202716406e+05
    3.3330474049e-02    1.0202446094e+05
    3.3344611526e-02    1.0202184375e+05
    3.3358741552e-02    1.0202603906e+05
    3.3372864127e-02    1.0202590625e+05
    3.3386975527e-02    1.0203289844e+05
    3.3401079476e-02    1.0203072656e+05
    3.3415172249e-02    1.0203091406e+05
    3.3429257572e-02    1.0203346094e+05
    3.3443335444e-02    1.0202443750e+05
    3.3457405865e-02    1.0202210156e+05
    3.3471468836e-02    1.0202425000e+05
    3.3485524356e-02    1.0202391406e+05
    3.3499568701e-02    1.0202231250e+05
    3.3513605595e-02    1.0202067969e+05
    3.3527631313e-02    1.0202016406e+05
    3.3541653305e-02    1.0201969531e+05
    3.3555664122e-02    1.0201925000e+05
    3.3569667488e-02    1.0201885156e+05
    3.3583663404e-02    1.0201847656e+05
    3.3597648144e-02    1.0201934375e+05
    3.3611625433e-02    1.0201780469e+05
    3.3625595272e-02    1.0201727344e+05
    3.3639557660e-02    1.0201650781e+05
    3.3653512597e-02    1.0201086719e+05
    3.3667460084e-02    1.0200478125e+05
    3.3681396395e-02    1.0200317969e+05
    3.3695328981e-02    1.0200377344e+05
    3.3709254116e-02    1.0200227344e+05
    3.3723168075e-02    1.0200097656e+05
    3.3737078309e-02    1.0200214844e+05
    3.3750977367e-02    1.0200611719e+05
    3.3764872700e-02    1.0200567969e+05
    3.3778760582e-02    1.0200540625e+05
    3.3792637289e-02    1.0200746094e+05
    3.3806510270e-02    1.0200717969e+05
    3.3820372075e-02    1.0200437500e+05
    3.3834230155e-02    1.0199674219e+05
    3.3848077059e-02    1.0199571094e+05
    3.3861916512e-02    1.0199453125e+05
    3.3875752240e-02    1.0199334375e+05
    3.3889576793e-02    1.0199215625e+05
    3.3903393894e-02    1.0199559375e+05
    3.3917203546e-02    1.0199466406e+05
    3.3931009471e-02    1.0199406250e+05
    3.3944804221e-02    1.0199322656e+05
    3.3958595246e-02    1.0198788281e+05
    3.3972378820e-02    1.0199167969e+05
    3.3986151218e-02    1.0199214844e+05
    3.3999919891e-02    1.0198810156e+05
    3.4013681114e-02    1.0198740625e+05
    3.4027434886e-02    1.0198549219e+05
    3.4041177481e-02    1.0198587500e+05
    3.4054916352e-02    1.0198521094e+05
    3.4068647772e-02    1.0198455469e+05
    3.4082375467e-02    1.0198168750e+05
    3.4096091986e-02    1.0198571875e+05
    3.4109804779e-02    1.0198307031e+05
    3.4123510122e-02    1.0198264844e+05
    3.4137208015e-02    1.0198452344e+05
    3.4150898457e-02    1.0198397656e+05
    3.4164581448e-02    1.0198114844e+05
    3.4178260714e-02    1.0198046094e+05
    3.4191932529e-02    1.0197966406e+05
    3.4205596894e-02    1.0197875000e+05
    3.4219253808e-02    1.0197652344e+05
    3.4232903272e-02    1.0197403906e+05
    3.4246545285e-02    1.0197133594e+05
    3.4260183573e-02    1.0196400781e+05
    3.4273810685e-02    1.0196003906e+05
    3.4287434071e-02    1.0196072656e+05
    3.4301050007e-02    1.0196385156e+05
    3.4314658493e-02    1.0196460156e+05
    3.4328263253e-02    1.0196321094e+05
    3.4341860563e-02    1.0196408594e+05
    3.4355450422e-02    1.0196028125e+05
    3.4369036555e-02    1.0195855469e+05
    3.4382611513e-02    1.0195096094e+05
    3.4396182746e-02    1.0194316406e+05
    3.4409742802e-02    1.0194224219e+05
    3.4423299134e-02    1.0193917969e+05
    3.4436848015e-02    1.0194193750e+05
    3.4450393170e-02    1.0193667969e+05
    3.4463927150e-02    1.0193380469e+05
    3.4477461129e-02    1.0193334375e+05
    3.4490987659e-02    1.0193522656e+05
    3.4504506737e-02    1.0193810156e+05
    3.4518022090e-02    1.0193628906e+05
    3.4531529993e-02    1.0192736719e+05
    3.4545030445e-02    1.0192294531e+05
    3.4558523446e-02    1.0191952344e+05
    3.4572008997e-02    1.0191603125e+05
    3.4585487098e-02    1.0191362500e+05
    3.4598957747e-02    1.0191115625e+05
    3.4612424672e-02    1.0190866406e+05
    3.4625884145e-02    1.0190752344e+05
    3.4639336169e-02    1.0190638281e+05
    3.4652780741e-02    1.0190417969e+05
    3.4666225314e-02    1.0190196094e+05
    3.4679658711e-02    1.0189744531e+05
    3.4693088382e-02    1.0189528906e+05
    3.4706510603e-02    1.0189318750e+05
    3.4719929099e-02    1.0189114844e+05
    3.4733340144e-02    1.0188921875e+05
    3.4746743739e-02    1.0189410156e+05
    3.4760143608e-02    1.0188783594e+05
    3.4773536026e-02    1.0188600781e+05
    3.4786924720e-02    1.0188413281e+05
    3.4800305963e-02    1.0188210156e+05
    3.4813679755e-02    1.0187885156e+05
    3.4827046096e-02    1.0187672656e+05
    3.4840408713e-02    1.0187563281e+05
    3.4853763878e-02    1.0187328125e+05
    3.4867111593e-02    1.0186732031e+05
    3.4880455583e-02    1.0186350781e+05
    3.4893795848e-02    1.0186325781e+05
    3.4907124937e-02    1.0186534375e+05
    3.4920454025e-02    1.0186066406e+05
    3.4933775663e-02    1.0185837500e+05
    3.4947093576e-02    1.0185739844e+05
    3.4960404038e-02    1.0185432031e+05
    3.4973710775e-02    1.0185466406e+05
    3.4987010062e-02    1.0185057031e+05
endcurve
