Curveplot
LS-DYNA keyword deck by LS-PrePost                          
Time
Pressure
Defined Connection
Pressure @ 89 #pts=1745
* Minval=     9.9636789062e+04 at time=         0.0179994479
* Maxval=     1.6696790625e+05 at time=         0.0079561360
    0.0000000000e+00    9.9998710938e+04
    3.3812357287e-05    9.9998710938e+04
    6.1326652940e-05    9.9996617188e+04
    8.9102875791e-05    1.0000127344e+05
    1.1682785407e-04    9.9996960938e+04
    1.4461828687e-04    9.9997226562e+04
    1.7236733402e-04    1.0000678906e+05
    2.0016246708e-04    1.0000062500e+05
    2.2795486439e-04    9.9998781250e+04
    2.5574557367e-04    1.0000139844e+05
    2.8353667585e-04    1.0000169531e+05
    3.1133697485e-04    1.0000149219e+05
    3.3912662184e-04    9.9994367188e+04
    3.6691734567e-04    9.9998710938e+04
    3.9470891352e-04    1.0000137500e+05
    4.2249175021e-04    1.0000667969e+05
    4.5027161832e-04    1.0000260156e+05
    4.7804549104e-04    1.0000044531e+05
    5.0581363030e-04    1.0000027344e+05
    5.3357944125e-04    1.0000127344e+05
    5.6134146871e-04    9.9992750000e+04
    5.8909942163e-04    9.9991210938e+04
    6.1685312539e-04    1.0000039844e+05
    6.4460188150e-04    1.0000435156e+05
    6.7234638846e-04    1.0000233594e+05
    7.0008635521e-04    1.0000228125e+05
    7.2782178177e-04    1.0000200000e+05
    7.5555208605e-04    1.0000200000e+05
    7.8327720985e-04    1.0000236719e+05
    8.1099680392e-04    1.0000261719e+05
    8.3871174138e-04    1.0000021094e+05
    8.6642213864e-04    9.9993039062e+04
    8.9412782108e-04    9.9997257812e+04
    9.2182843946e-04    1.0000203906e+05
    9.4952445943e-04    1.0000238281e+05
    9.7721535712e-04    9.9997718750e+04
    1.0049008997e-03    9.9997117188e+04
    1.0325826006e-03    1.0000116406e+05
    1.0602590628e-03    1.0000335156e+05
    1.0879321489e-03    1.0000841406e+05
    1.1155996472e-03    1.0000214844e+05
    1.1432634201e-03    9.9997679688e+04
    1.1709230021e-03    9.9995023438e+04
    1.1985785095e-03    9.9989820312e+04
    1.2262313394e-03    1.0000099219e+05
    1.2538790470e-03    1.0001055469e+05
    1.2815232622e-03    1.0000225000e+05
    1.3091630535e-03    1.0000096094e+05
    1.3368004002e-03    1.0000303906e+05
    1.3644339051e-03    1.0001021094e+05
    1.3920635683e-03    1.0002732031e+05
    1.4196902048e-03    1.0005627344e+05
    1.4473132323e-03    1.0010014844e+05
    1.4749332331e-03    1.0018746094e+05
    1.5025498578e-03    1.0032666406e+05
    1.5301633393e-03    1.0051700781e+05
    1.5577742597e-03    1.0077455469e+05
    1.5853822697e-03    1.0109888281e+05
    1.6129877185e-03    1.0147012500e+05
    1.6405890929e-03    1.0186900000e+05
    1.6681876732e-03    1.0224856250e+05
    1.6957829939e-03    1.0259258594e+05
    1.7233766848e-03    1.0287327344e+05
    1.7509678146e-03    1.0305403906e+05
    1.7785291420e-03    1.0313816406e+05
    1.8060547300e-03    1.0313146094e+05
    1.8335470231e-03    1.0305218750e+05
    1.8610082334e-03    1.0292571875e+05
    1.8884401070e-03    1.0275116406e+05
    1.9158447394e-03    1.0257209375e+05
    1.9432241097e-03    1.0241746875e+05
    1.9705800805e-03    1.0229572656e+05
    1.9979148638e-03    1.0222028906e+05
    2.0252298564e-03    1.0219162500e+05
    2.0525271539e-03    1.0221455469e+05
    2.0798076876e-03    1.0227174219e+05
    2.1070730872e-03    1.0234722656e+05
    2.1343247499e-03    1.0242065625e+05
    2.1615643054e-03    1.0248391406e+05
    2.1887931507e-03    1.0252896875e+05
    2.2160108201e-03    1.0253747656e+05
    2.2432196420e-03    1.0253191406e+05
    2.2704207804e-03    1.0251875781e+05
    2.2976147011e-03    1.0248424219e+05
    2.3248014040e-03    1.0244587500e+05
    2.3519827519e-03    1.0240935156e+05
    2.3791582789e-03    1.0238814844e+05
    2.4063293822e-03    1.0238403906e+05
    2.4334960617e-03    1.0238833594e+05
    2.4606597144e-03    1.0239883594e+05
    2.4878205732e-03    1.0241699219e+05
    2.5149781723e-03    1.0242589844e+05
    2.5421329774e-03    1.0244019531e+05
    2.5692859199e-03    1.0244471094e+05
    2.5964374654e-03    1.0244511719e+05
    2.6235871483e-03    1.0245006250e+05
    2.6507352013e-03    1.0243458594e+05
    2.6778825559e-03    1.0242972656e+05
    2.7050296776e-03    1.0242238281e+05
    2.7321761008e-03    1.0242042969e+05
    2.7593218256e-03    1.0241313281e+05
    2.7864677832e-03    1.0241662500e+05
    2.8136142064e-03    1.0242347656e+05
    2.8407603968e-03    1.0243099219e+05
    2.8679079842e-03    1.0244612500e+05
    2.8950548731e-03    1.0245993750e+05
    2.9222022276e-03    1.0248932031e+05
    2.9493502807e-03    1.0252089844e+05
    2.9764990322e-03    1.0257250000e+05
    3.0036487151e-03    1.0263883594e+05
    3.0307997949e-03    1.0272571094e+05
    3.0579508748e-03    1.0281689844e+05
    3.0851035845e-03    1.0291532031e+05
    3.1122572254e-03    1.0302063281e+05
    3.1394117977e-03    1.0312232031e+05
    3.1665677670e-03    1.0320164844e+05
    3.1937246677e-03    1.0326075000e+05
    3.2208829653e-03    1.0330389844e+05
    3.2480424270e-03    1.0330978906e+05
    3.2752046827e-03    1.0328756250e+05
    3.2952371985e-03    1.0325481250e+05
    3.3145032357e-03    1.0322044531e+05
    3.3336398192e-03    1.0318444531e+05
    3.3528339118e-03    1.0314478906e+05
    3.3720366191e-03    1.0310852344e+05
    3.3912549261e-03    1.0306447656e+05
    3.4104890656e-03    1.0302224219e+05
    3.4297339153e-03    1.0297305469e+05
    3.4486323129e-03    1.0292637500e+05
    3.4671388566e-03    1.0287908594e+05
    3.4854323603e-03    1.0282099219e+05
    3.5036695190e-03    1.0276486719e+05
    3.5219141282e-03    1.0270496094e+05
    3.5401545465e-03    1.0263656250e+05
    3.5583588760e-03    1.0256914844e+05
    3.5765271168e-03    1.0250085156e+05
    3.5946895368e-03    1.0244071094e+05
    3.6139658187e-03    1.0237685156e+05
    3.6330535077e-03    1.0232696875e+05
    3.6521453876e-03    1.0228227344e+05
    3.6699753255e-03    1.0224590625e+05
    3.6875614896e-03    1.0222347656e+05
    3.7050142419e-03    1.0220597656e+05
    3.7224807311e-03    1.0219103125e+05
    3.7400643341e-03    1.0217847656e+05
    3.7577797193e-03    1.0216596875e+05
    3.7755726371e-03    1.0215897656e+05
    3.7933769636e-03    1.0215158594e+05
    3.8111612666e-03    1.0214021094e+05
    3.8289318327e-03    1.0213253125e+05
    3.8467168342e-03    1.0212605469e+05
    3.8645383902e-03    1.0211632031e+05
    3.8824023213e-03    1.0211227344e+05
    3.9002960548e-03    1.0210424219e+05
    3.9182156324e-03    1.0209200000e+05
    3.9361710660e-03    1.0207533594e+05
    3.9541716687e-03    1.0205839844e+05
    3.9733103476e-03    1.0203646094e+05
    3.9924201556e-03    1.0201278125e+05
    4.0104058571e-03    1.0199608594e+05
    4.0284004062e-03    1.0197897656e+05
    4.0464363992e-03    1.0197196094e+05
    4.0656095371e-03    1.0196622656e+05
    4.0847789496e-03    1.0197108594e+05
    4.1039343923e-03    1.0196821094e+05
    4.1219722480e-03    1.0196391406e+05
    4.1400394402e-03    1.0195530469e+05
    4.1591953486e-03    1.0194452344e+05
    4.1784178466e-03    1.0193347656e+05
    4.1976389475e-03    1.0192100781e+05
    4.2168586515e-03    1.0191067969e+05
    4.2360713705e-03    1.0189937500e+05
    4.2552771047e-03    1.0189525781e+05
    4.2744791135e-03    1.0188778906e+05
    4.2936825193e-03    1.0187791406e+05
    4.3128933758e-03    1.0187112500e+05
    4.3321144767e-03    1.0185438281e+05
    4.3513495475e-03    1.0183977344e+05
    4.3705995195e-03    1.0182566406e+05
    4.3898657896e-03    1.0180685156e+05
    4.4091497548e-03    1.0178068750e+05
    4.4284537435e-03    1.0175103125e+05
    4.4477786869e-03    1.0171592969e+05
    4.4671236537e-03    1.0167000781e+05
    4.4864914380e-03    1.0161952344e+05
    4.5058806427e-03    1.0155349219e+05
    4.5252908021e-03    1.0148850781e+05
    4.5447219163e-03    1.0140700781e+05
    4.5641721226e-03    1.0132110156e+05
    4.5836409554e-03    1.0122061719e+05
    4.6031279489e-03    1.0110142969e+05
    4.6226321720e-03    1.0098746094e+05
    4.6421540901e-03    1.0086677344e+05
    4.6616927721e-03    1.0074108594e+05
    4.6812482178e-03    1.0061946094e+05
    4.7008208930e-03    1.0050407031e+05
    4.7204112634e-03    1.0039525781e+05
    4.7400193289e-03    1.0030015625e+05
    4.7596455552e-03    1.0023463281e+05
    4.7792894766e-03    1.0018053125e+05
    4.7989510931e-03    1.0015031250e+05
    4.8186304048e-03    1.0014690625e+05
    4.8383255489e-03    1.0015907031e+05
    4.8580355942e-03    1.0018693750e+05
    4.8777610064e-03    1.0023046094e+05
    4.8975008540e-03    1.0028100781e+05
    4.9172551371e-03    1.0034464844e+05
    4.9370229244e-03    1.0041028906e+05
    4.9568060786e-03    1.0047364844e+05
    4.9766036682e-03    1.0052671875e+05
    4.9964170903e-03    1.0058137500e+05
    5.0162458792e-03    1.0062002344e+05
    5.0360900350e-03    1.0064563281e+05
    5.0559476949e-03    1.0066441406e+05
    5.0758207217e-03    1.0067152344e+05
    5.0957072526e-03    1.0067180469e+05
    5.1156077534e-03    1.0067260156e+05
    5.1355226897e-03    1.0066786719e+05
    5.1554525271e-03    1.0065377344e+05
    5.1753963344e-03    1.0064000781e+05
    5.1953555085e-03    1.0061725781e+05
    5.2153295837e-03    1.0059646094e+05
    5.2353194915e-03    1.0058183594e+05
    5.2553247660e-03    1.0056671094e+05
    5.2753463387e-03    1.0056300000e+05
    5.2953832783e-03    1.0057090625e+05
    5.3154369816e-03    1.0058147656e+05
    5.3355065174e-03    1.0058975781e+05
    5.3555918857e-03    1.0060435156e+05
    5.3756926209e-03    1.0061078906e+05
    5.3958082572e-03    1.0061743750e+05
    5.4159392603e-03    1.0062387500e+05
    5.4360851645e-03    1.0063446094e+05
    5.4562464356e-03    1.0064456250e+05
    5.4764230736e-03    1.0065069531e+05
    5.4966160096e-03    1.0065980469e+05
    5.5168238468e-03    1.0066856250e+05
    5.5370470509e-03    1.0066903906e+05
    5.5572865531e-03    1.0067233594e+05
    5.5775423534e-03    1.0067490625e+05
    5.5978130549e-03    1.0066762500e+05
    5.6181000546e-03    1.0067115625e+05
    5.6384028867e-03    1.0067244531e+05
    5.6587206200e-03    1.0067403906e+05
    5.6790532544e-03    1.0067606250e+05
    5.6994007900e-03    1.0067653125e+05
    5.7197632268e-03    1.0068425000e+05
    5.7401410304e-03    1.0068558594e+05
    5.7605337352e-03    1.0068922656e+05
    5.7809422724e-03    1.0069059375e+05
    5.8013652451e-03    1.0069659375e+05
    5.8218040504e-03    1.0070049219e+05
    5.8422577567e-03    1.0070200781e+05
    5.8627268299e-03    1.0070572656e+05
    5.8832112700e-03    1.0071989844e+05
    5.9037101455e-03    1.0072749219e+05
    5.9242248535e-03    1.0072466406e+05
    5.9447535314e-03    1.0072625000e+05
    5.9641525149e-03    1.0073710156e+05
    5.9830932878e-03    1.0073902344e+05
    6.0020405799e-03    1.0074347656e+05
    6.0210367665e-03    1.0075277344e+05
    6.0400799848e-03    1.0076447656e+05
    6.0591096990e-03    1.0076971094e+05
    6.0781282373e-03    1.0077496875e+05
    6.0972142965e-03    1.0078006250e+05
    6.1162756756e-03    1.0078503906e+05
    6.1353649944e-03    1.0079006250e+05
    6.1544459313e-03    1.0079496094e+05
    6.1734300107e-03    1.0080803125e+05
    6.1924448237e-03    1.0081230469e+05
    6.2115197070e-03    1.0082028125e+05
    6.2306127511e-03    1.0083539844e+05
    6.2497169711e-03    1.0084171875e+05
    6.2688281760e-03    1.0085510156e+05
    6.2879407778e-03    1.0086427344e+05
    6.3070552424e-03    1.0087167969e+05
    6.3261794858e-03    1.0088894531e+05
    6.3453060575e-03    1.0090728125e+05
    6.3644465990e-03    1.0092683594e+05
    6.3835908659e-03    1.0094760156e+05
    6.4027444459e-03    1.0096950000e+05
    6.4219115302e-03    1.0099212500e+05
    6.4410855994e-03    1.0100590625e+05
    6.4602680504e-03    1.0101956250e+05
    6.4794607460e-03    1.0103177344e+05
    6.4986641519e-03    1.0104466406e+05
    6.5178787336e-03    1.0104914844e+05
    6.5371058881e-03    1.0106102344e+05
    6.5563363023e-03    1.0106316406e+05
    6.5755699761e-03    1.0107350000e+05
    6.5948092379e-03    1.0107264844e+05
    6.6140629351e-03    1.0107296875e+05
    6.6333152354e-03    1.0107111719e+05
    6.6525745206e-03    1.0106614844e+05
    6.6718445159e-03    1.0106275781e+05
    6.6911154427e-03    1.0106792969e+05
    6.7104012705e-03    1.0107258594e+05
    6.7296870984e-03    1.0106746094e+05
    6.7489854991e-03    1.0107285156e+05
    6.7682852969e-03    1.0106635156e+05
    6.7875892855e-03    1.0106633594e+05
    6.8069072440e-03    1.0105922656e+05
    6.8262196146e-03    1.0106113281e+05
    6.8455408327e-03    1.0106525781e+05
    6.8648783490e-03    1.0106827344e+05
    6.8842126057e-03    1.0106859375e+05
    6.9035501219e-03    1.0106052344e+05
    6.9228983484e-03    1.0106116406e+05
    6.9422605447e-03    1.0105705469e+05
    6.9616222754e-03    1.0105287500e+05
    6.9809844717e-03    1.0105294531e+05
    7.0003494620e-03    1.0105284375e+05
    7.0197195746e-03    1.0105055469e+05
    7.0390999317e-03    1.0105056250e+05
    7.0584909990e-03    1.0105963281e+05
    7.0778946392e-03    1.0105272656e+05
    7.0973108523e-03    1.0105242969e+05
    7.1167377755e-03    1.0105193750e+05
    7.1361698210e-03    1.0105157031e+05
    7.1556069888e-03    1.0104910156e+05
    7.1750483476e-03    1.0104892969e+05
    7.1944966912e-03    1.0104987500e+05
    7.2139529511e-03    1.0105089844e+05
    7.2334166616e-03    1.0105325000e+05
    7.2528840974e-03    1.0105335156e+05
    7.2723543271e-03    1.0105843750e+05
    7.2918278165e-03    1.0106046094e+05
    7.3113050312e-03    1.0106264844e+05
    7.3307845742e-03    1.0106369531e+05
    7.3502692394e-03    1.0106463281e+05
    7.3697618209e-03    1.0106335156e+05
    7.3892641813e-03    1.0106712500e+05
    7.4087800458e-03    1.0106953906e+05
    7.4282912537e-03    1.0107780469e+05
    7.4477996677e-03    1.0108784375e+05
    7.4673094787e-03    1.0109762500e+05
    7.4868267402e-03    1.0111427344e+05
    7.5063589029e-03    1.0112678906e+05
    7.5258887373e-03    1.0115205469e+05
    7.5454111211e-03    1.0118378906e+05
    7.5649353676e-03    1.0122033594e+05
    7.5844703242e-03    1.0126671094e+05
    7.6040057465e-03    1.0132108594e+05
    7.6235276647e-03    1.0138633594e+05
    7.6430505142e-03    1.0146596094e+05
    7.6625877991e-03    1.0157972656e+05
    7.6821087860e-03    1.0174290625e+05
    7.7016241848e-03    1.0199218750e+05
    7.7211544849e-03    1.0240665625e+05
    7.7406810597e-03    1.0313484375e+05
    7.7602043748e-03    1.0442569531e+05
    7.7797495760e-03    1.0667878125e+05
    7.7992938459e-03    1.1043016406e+05
    7.8188432381e-03    1.1619877344e+05
    7.8384252265e-03    1.2422389844e+05
    7.8580006957e-03    1.3414225000e+05
    7.8775910661e-03    1.4475918750e+05
    7.8972103074e-03    1.5443234375e+05
    7.9168286175e-03    1.6168250000e+05
    7.9364804551e-03    1.6578546875e+05
    7.9561360180e-03    1.6696790625e+05
    7.9758102074e-03    1.6605559375e+05
    7.9955114052e-03    1.6404876562e+05
    8.0152126029e-03    1.6179182812e+05
    8.0349491909e-03    1.5984046875e+05
    8.0546662211e-03    1.5829212500e+05
    8.0743944272e-03    1.5709242188e+05
    8.0941170454e-03    1.5601315625e+05
    8.1138620153e-03    1.5484645312e+05
    8.1336386502e-03    1.5346528125e+05
    8.1534720957e-03    1.5181843750e+05
    8.1733558327e-03    1.4996768750e+05
    8.1932730973e-03    1.4802664062e+05
    8.2132071257e-03    1.4609065625e+05
    8.2330890000e-03    1.4426296875e+05
    8.2529615611e-03    1.4259101562e+05
    8.2727763802e-03    1.4106698438e+05
    8.2926023751e-03    1.3967532812e+05
    8.3124246448e-03    1.3836478125e+05
    8.3322748542e-03    1.3710564062e+05
    8.3521194756e-03    1.3588689062e+05
    8.3719678223e-03    1.3469685938e+05
    8.3917891607e-03    1.3355242188e+05
    8.4116021171e-03    1.3246154688e+05
    8.4314141423e-03    1.3143782812e+05
    8.4512168542e-03    1.3048664844e+05
    8.4710381925e-03    1.2961641406e+05
    8.4908353165e-03    1.2882328906e+05
    8.5106678307e-03    1.2809233594e+05
    8.5304882377e-03    1.2741882031e+05
    8.5503393784e-03    1.2678039844e+05
    8.5699046031e-03    1.2617016406e+05
    8.5892248899e-03    1.2559722656e+05
    8.6083402857e-03    1.2505590625e+05
    8.6272666231e-03    1.2453903125e+05
    8.6460309103e-03    1.2404635156e+05
    8.6646731943e-03    1.2359133594e+05
    8.6832325906e-03    1.2315235156e+05
    8.7017398328e-03    1.2274119531e+05
    8.7202098221e-03    1.2235113281e+05
    8.7386453524e-03    1.2197889844e+05
    8.7570473552e-03    1.2162619531e+05
    8.7753897533e-03    1.2128399219e+05
    8.7936492637e-03    1.2095456250e+05
    8.8118780404e-03    1.2064221094e+05
    8.8300397620e-03    1.2034442969e+05
    8.8481390849e-03    1.2005817969e+05
    8.8662039489e-03    1.1979361719e+05
    8.8842641562e-03    1.1954132031e+05
    8.9023411274e-03    1.1930496094e+05
    8.9204348624e-03    1.1907553906e+05
    8.9385388419e-03    1.1885985156e+05
    8.9566456154e-03    1.1864271875e+05
    8.9747514576e-03    1.1842821094e+05
    8.9928600937e-03    1.1821039844e+05
    9.0109808370e-03    1.1798965625e+05
    9.0291155502e-03    1.1775378906e+05
    9.0472688898e-03    1.1751175781e+05
    9.0654399246e-03    1.1726574219e+05
    9.0836230665e-03    1.1701321875e+05
    9.1018192470e-03    1.1675774219e+05
    9.1200266033e-03    1.1650071094e+05
    9.1382460669e-03    1.1625346875e+05
    9.1564757749e-03    1.1600253906e+05
    9.1747231781e-03    1.1574439844e+05
    9.1929892078e-03    1.1550252344e+05
    9.2112747952e-03    1.1526009375e+05
    9.2295790091e-03    1.1501589844e+05
    9.2479009181e-03    1.1478166406e+05
    9.2662386596e-03    1.1455196094e+05
    9.2845931649e-03    1.1433414844e+05
    9.3029672280e-03    1.1412746094e+05
    9.3213599175e-03    1.1392302344e+05
    9.3397712335e-03    1.1372822656e+05
    9.3582011759e-03    1.1354563281e+05
    9.3766497448e-03    1.1337427344e+05
    9.3951150775e-03    1.1320425000e+05
    9.4135999680e-03    1.1305786719e+05
    9.4321016222e-03    1.1292216406e+05
    9.4506228343e-03    1.1279375781e+05
    9.4691645354e-03    1.1268105469e+05
    9.4877239317e-03    1.1257614844e+05
    9.5063010231e-03    1.1247536719e+05
    9.5248948783e-03    1.1238562500e+05
    9.5435054973e-03    1.1230278906e+05
    9.5621328801e-03    1.1222639844e+05
    9.5807760954e-03    1.1215261719e+05
    9.5994332805e-03    1.1208191406e+05
    9.6181081608e-03    1.1201350781e+05
    9.6367979422e-03    1.1195210156e+05
    9.6555035561e-03    1.1188558594e+05
    9.6742231399e-03    1.1182189844e+05
    9.6929576248e-03    1.1176532031e+05
    9.7117051482e-03    1.1170922656e+05
    9.7304685041e-03    1.1164796094e+05
    9.7492448986e-03    1.1158285156e+05
    9.7680361941e-03    1.1152353125e+05
    9.7868405282e-03    1.1146681250e+05
    9.8056588322e-03    1.1141097656e+05
    9.8244920373e-03    1.1135353906e+05
    9.8433364183e-03    1.1129696094e+05
    9.8621929064e-03    1.1125196875e+05
    9.8810633644e-03    1.1119753906e+05
    9.8999459296e-03    1.1115756250e+05
    9.9188406020e-03    1.1112422656e+05
    9.9377483130e-03    1.1108438281e+05
    9.9566690624e-03    1.1105385156e+05
    9.9756028503e-03    1.1102588281e+05
    9.9945487455e-03    1.1100397656e+05
    1.0013507679e-02    1.1098071094e+05
    1.0032479651e-02    1.1095714844e+05
    1.0051463731e-02    1.1093619531e+05
    1.0070459917e-02    1.1091177344e+05
    1.0089469142e-02    1.1088344531e+05
    1.0108492337e-02    1.1085381250e+05
    1.0127528571e-02    1.1081427344e+05
    1.0146577843e-02    1.1078011719e+05
    1.0165639222e-02    1.1074755469e+05
    1.0184712708e-02    1.1071466406e+05
    1.0203798302e-02    1.1067928906e+05
    1.0222896002e-02    1.1064539844e+05
    1.0242006741e-02    1.1061710156e+05
    1.0261129588e-02    1.1059625000e+05
    1.0280264542e-02    1.1058062500e+05
    1.0299413465e-02    1.1057032031e+05
    1.0318575427e-02    1.1057133594e+05
    1.0337748565e-02    1.1056742969e+05
    1.0356934741e-02    1.1056925000e+05
    1.0376133956e-02    1.1056032031e+05
    1.0395346209e-02    1.1054880469e+05
    1.0414571501e-02    1.1053758594e+05
    1.0433809832e-02    1.1051734375e+05
    1.0453061201e-02    1.1048947656e+05
    1.0472324677e-02    1.1045646094e+05
    1.0491601191e-02    1.1040611719e+05
    1.0510892607e-02    1.1034752344e+05
    1.0530196130e-02    1.1027575781e+05
    1.0549513623e-02    1.1019025000e+05
    1.0568842292e-02    1.1010903906e+05
    1.0588183999e-02    1.1002597656e+05
    1.0607538745e-02    1.0993824219e+05
    1.0626907460e-02    1.0984469531e+05
    1.0646289214e-02    1.0975838281e+05
    1.0665684007e-02    1.0966927344e+05
    1.0685092770e-02    1.0958628906e+05
    1.0704516433e-02    1.0951193750e+05
    1.0723951273e-02    1.0944296094e+05
    1.0743400082e-02    1.0938586719e+05
    1.0762862861e-02    1.0933021094e+05
    1.0782338679e-02    1.0927797656e+05
    1.0801829398e-02    1.0922364844e+05
    1.0821334086e-02    1.0917337500e+05
    1.0840852745e-02    1.0912182031e+05
    1.0860386305e-02    1.0907266406e+05
    1.0879932903e-02    1.0901931250e+05
    1.0899493471e-02    1.0896496094e+05
    1.0919069871e-02    1.0891261719e+05
    1.0938662104e-02    1.0884853125e+05
    1.0958270170e-02    1.0879210156e+05
    1.0977892205e-02    1.0872630469e+05
    1.0997531936e-02    1.0865971094e+05
    1.1017187499e-02    1.0859653125e+05
    1.1036860757e-02    1.0853099219e+05
    1.1056551710e-02    1.0846716406e+05
    1.1076259427e-02    1.0840032031e+05
    1.1095987633e-02    1.0833357031e+05
    1.1115733534e-02    1.0826993750e+05
    1.1135498993e-02    1.0820378906e+05
    1.1155283079e-02    1.0814325781e+05
    1.1175086722e-02    1.0808075781e+05
    1.1194912717e-02    1.0802063281e+05
    1.1214758269e-02    1.0796314844e+05
    1.1234625243e-02    1.0789486719e+05
    1.1254511774e-02    1.0783162500e+05
    1.1274418794e-02    1.0776375000e+05
    1.1294347234e-02    1.0769314844e+05
    1.1314296164e-02    1.0762396875e+05
    1.1334266514e-02    1.0755471094e+05
    1.1354257353e-02    1.0747232031e+05
    1.1374268681e-02    1.0739618750e+05
    1.1394302361e-02    1.0731707031e+05
    1.1414355598e-02    1.0723496094e+05
    1.1434430256e-02    1.0716205469e+05
    1.1454525404e-02    1.0708646094e+05
    1.1474640109e-02    1.0700540625e+05
    1.1494777165e-02    1.0692361719e+05
    1.1514934711e-02    1.0684875781e+05
    1.1535113677e-02    1.0677166406e+05
    1.1555313133e-02    1.0669246875e+05
    1.1575534008e-02    1.0661927344e+05
    1.1595774442e-02    1.0655759375e+05
    1.1616035365e-02    1.0648828906e+05
    1.1636316776e-02    1.0642440625e+05
    1.1656619608e-02    1.0636457031e+05
    1.1676942930e-02    1.0630286719e+05
    1.1697287671e-02    1.0624637500e+05
    1.1717652902e-02    1.0619257031e+05
    1.1738038622e-02    1.0613780469e+05
    1.1758443899e-02    1.0608646875e+05
    1.1778870597e-02    1.0603147656e+05
    1.1799318716e-02    1.0597243750e+05
    1.1819788255e-02    1.0591809375e+05
    1.1840280145e-02    1.0585699219e+05
    1.1860790662e-02    1.0580090625e+05
    1.1881321669e-02    1.0574021094e+05
    1.1901874095e-02    1.0568452344e+05
    1.1922447011e-02    1.0562683594e+05
    1.1943042278e-02    1.0556925000e+05
    1.1963658035e-02    1.0550292969e+05
    1.1984295212e-02    1.0543580469e+05
    1.2004952878e-02    1.0535588281e+05
    1.2025631964e-02    1.0527902344e+05
    1.2046331540e-02    1.0519710156e+05
    1.2067052536e-02    1.0511319531e+05
    1.2087795883e-02    1.0501521875e+05
    1.2108558789e-02    1.0492541406e+05
    1.2129344046e-02    1.0482622656e+05
    1.2150149792e-02    1.0472891406e+05
    1.2170976959e-02    1.0464180469e+05
    1.2191825546e-02    1.0455083594e+05
    1.2212695554e-02    1.0447537500e+05
    1.2233586982e-02    1.0441722656e+05
    1.2254500762e-02    1.0436758594e+05
    1.2275436893e-02    1.0433236719e+05
    1.2296394445e-02    1.0431252344e+05
    1.2317374349e-02    1.0429808594e+05
    1.2338375673e-02    1.0429365625e+05
    1.2359398417e-02    1.0429258594e+05
    1.2380442582e-02    1.0429021094e+05
    1.2401508167e-02    1.0428325000e+05
    1.2422595173e-02    1.0426321094e+05
    1.2443703599e-02    1.0423756250e+05
    1.2464834377e-02    1.0420028125e+05
    1.2485986575e-02    1.0416259375e+05
    1.2507158332e-02    1.0411497656e+05
    1.2528351508e-02    1.0406155469e+05
    1.2549565174e-02    1.0401575781e+05
    1.2570801191e-02    1.0397678906e+05
    1.2592058629e-02    1.0393318750e+05
    1.2613337487e-02    1.0390380469e+05
    1.2634636834e-02    1.0387610156e+05
    1.2655957602e-02    1.0386147656e+05
    1.2677297927e-02    1.0384316406e+05
    1.2698660605e-02    1.0382652344e+05
    1.2720043771e-02    1.0380768750e+05
    1.2741449289e-02    1.0378125781e+05
    1.2762876227e-02    1.0375271094e+05
    1.2784325518e-02    1.0371489844e+05
    1.2805794366e-02    1.0366903906e+05
    1.2827285565e-02    1.0362500781e+05
    1.2848797254e-02    1.0357497656e+05
    1.2870330364e-02    1.0352687500e+05
    1.2891885825e-02    1.0348028125e+05
    1.2913462706e-02    1.0343807031e+05
    1.2935061008e-02    1.0341021094e+05
    1.2956679799e-02    1.0337514844e+05
    1.2978320010e-02    1.0334889844e+05
    1.2999981642e-02    1.0331697656e+05
    1.3021663763e-02    1.0328150000e+05
    1.3043368235e-02    1.0325125000e+05
    1.3065092266e-02    1.0322871875e+05
    1.3086837716e-02    1.0320566406e+05
    1.3108605519e-02    1.0319085156e+05
    1.3130392879e-02    1.0317042969e+05
    1.3152201660e-02    1.0314953906e+05
    1.3174032792e-02    1.0313496094e+05
    1.3195885345e-02    1.0313109375e+05
    1.3217759319e-02    1.0313413281e+05
    1.3239653781e-02    1.0317053125e+05
    1.3261569664e-02    1.0323172656e+05
    1.3283506967e-02    1.0334928906e+05
    1.3305463828e-02    1.0352739844e+05
    1.3327440247e-02    1.0378603125e+05
    1.3349435292e-02    1.0415000000e+05
    1.3371448033e-02    1.0464025000e+05
    1.3393475674e-02    1.0526742969e+05
    1.3415516354e-02    1.0603769531e+05
    1.3437564485e-02    1.0692577344e+05
    1.3459613547e-02    1.0790902344e+05
    1.3481658883e-02    1.0893428906e+05
    1.3503690250e-02    1.0991917969e+05
    1.3525702059e-02    1.1081578125e+05
    1.3547683135e-02    1.1153290625e+05
    1.3569628820e-02    1.1202472656e+05
    1.3591531664e-02    1.1227143750e+05
    1.3613392599e-02    1.1226064844e+05
    1.3635210693e-02    1.1202991406e+05
    1.3656994328e-02    1.1161057031e+05
    1.3678749092e-02    1.1103585156e+05
    1.3700488023e-02    1.1036141406e+05
    1.3722228818e-02    1.0964164844e+05
    1.3743981719e-02    1.0892664844e+05
    1.3765762560e-02    1.0825939844e+05
    1.3787578791e-02    1.0768528906e+05
    1.3809437864e-02    1.0722062500e+05
    1.3831341639e-02    1.0685335156e+05
    1.3853288256e-02    1.0656297656e+05
    1.3875273056e-02    1.0632721875e+05
    1.3897285797e-02    1.0608978906e+05
    1.3919321820e-02    1.0583047656e+05
    1.3941374607e-02    1.0553003906e+05
    1.3963440433e-02    1.0516246094e+05
    1.3985517435e-02    1.0474550000e+05
    1.4007603750e-02    1.0427783594e+05
    1.4029704034e-02    1.0378722656e+05
    1.4051820152e-02    1.0328925000e+05
    1.4073957689e-02    1.0280890625e+05
    1.4096121304e-02    1.0236914844e+05
    1.4118315652e-02    1.0199075000e+05
    1.4140545391e-02    1.0168017969e+05
    1.4162814245e-02    1.0143899219e+05
    1.4185124077e-02    1.0126833594e+05
    1.4207473956e-02    1.0115693750e+05
    1.4229862019e-02    1.0109697656e+05
    1.4252286404e-02    1.0108112500e+05
    1.4274741523e-02    1.0108759375e+05
    1.4297228307e-02    1.0111774219e+05
    1.4319745824e-02    1.0114953906e+05
    1.4342290349e-02    1.0118485156e+05
    1.4364863746e-02    1.0120469531e+05
    1.4387467876e-02    1.0122186719e+05
    1.4410103671e-02    1.0122543750e+05
    1.4432771131e-02    1.0120896094e+05
    1.4455472119e-02    1.0119161719e+05
    1.4478209428e-02    1.0116128906e+05
    1.4500979334e-02    1.0112971875e+05
    1.4523783699e-02    1.0110305469e+05
    1.4546621591e-02    1.0108133594e+05
    1.4569494873e-02    1.0106040625e+05
    1.4592399821e-02    1.0105091406e+05
    1.4615339227e-02    1.0104341406e+05
    1.4638305642e-02    1.0105231250e+05
    1.4661304653e-02    1.0107141406e+05
    1.4684336260e-02    1.0110500000e+05
    1.4707398601e-02    1.0115027344e+05
    1.4730494469e-02    1.0120775000e+05
    1.4753622934e-02    1.0128122656e+05
    1.4776783995e-02    1.0136115625e+05
    1.4799979515e-02    1.0143892969e+05
    1.4823205769e-02    1.0151840625e+05
    1.4846466482e-02    1.0158416406e+05
    1.4869757928e-02    1.0163630469e+05
    1.4893081971e-02    1.0167260156e+05
    1.4916437678e-02    1.0168885156e+05
    1.4939822257e-02    1.0169105469e+05
    1.4963239431e-02    1.0168172656e+05
    1.4986685477e-02    1.0167669531e+05
    1.5010161325e-02    1.0168057031e+05
    1.5033668838e-02    1.0169090625e+05
    1.5057205223e-02    1.0170983594e+05
    1.5080772340e-02    1.0173885156e+05
    1.5104367398e-02    1.0177246875e+05
    1.5127992257e-02    1.0180821094e+05
    1.5151646920e-02    1.0183600000e+05
    1.5175330453e-02    1.0186263281e+05
    1.5199041925e-02    1.0187819531e+05
    1.5222782269e-02    1.0189124219e+05
    1.5246548690e-02    1.0189678125e+05
    1.5270343982e-02    1.0189743750e+05
    1.5294168144e-02    1.0190258594e+05
    1.5318016522e-02    1.0190165625e+05
    1.5341891907e-02    1.0190263281e+05
    1.5365792438e-02    1.0190947656e+05
    1.5389721841e-02    1.0191949219e+05
    1.5413676389e-02    1.0193521094e+05
    1.5437657945e-02    1.0194840625e+05
    1.5461664647e-02    1.0195521094e+05
    1.5485695563e-02    1.0195880469e+05
    1.5509752557e-02    1.0195333594e+05
    1.5533835627e-02    1.0194030469e+05
    1.5557944775e-02    1.0191616406e+05
    1.5582079068e-02    1.0189260156e+05
    1.5606240369e-02    1.0185402344e+05
    1.5630424023e-02    1.0180659375e+05
    1.5654634684e-02    1.0175703906e+05
    1.5678871423e-02    1.0169931250e+05
    1.5703132376e-02    1.0163415625e+05
    1.5727419406e-02    1.0155800000e+05
    1.5751728788e-02    1.0147471875e+05
    1.5776060522e-02    1.0139535156e+05
    1.5800418332e-02    1.0131519531e+05
    1.5824800357e-02    1.0123260156e+05
    1.5849204734e-02    1.0115453906e+05
    1.5873633325e-02    1.0108385156e+05
    1.5898084268e-02    1.0102633594e+05
    1.5922557563e-02    1.0099134375e+05
    1.5947058797e-02    1.0096035156e+05
    1.5971582383e-02    1.0094142969e+05
    1.5996130183e-02    1.0092591406e+05
    1.6020702198e-02    1.0092857031e+05
    1.6045298427e-02    1.0093153906e+05
    1.6069920734e-02    1.0094653906e+05
    1.6094569117e-02    1.0096063281e+05
    1.6119243577e-02    1.0097943750e+05
    1.6143942252e-02    1.0099231250e+05
    1.6168667004e-02    1.0101060156e+05
    1.6193419695e-02    1.0103264844e+05
    1.6218200326e-02    1.0105596094e+05
    1.6243007034e-02    1.0107593750e+05
    1.6267839819e-02    1.0109652344e+05
    1.6292702407e-02    1.0111864844e+05
    1.6317596659e-02    1.0114178906e+05
    1.6342513263e-02    1.0116109375e+05
    1.6367461532e-02    1.0117810156e+05
    1.6392435879e-02    1.0118859375e+05
    1.6417443752e-02    1.0119266406e+05
    1.6442479566e-02    1.0118606250e+05
    1.6467543319e-02    1.0117621875e+05
    1.6492636874e-02    1.0116310156e+05
    1.6517756507e-02    1.0113466406e+05
    1.6542907804e-02    1.0110275781e+05
    1.6568088904e-02    1.0105310156e+05
    1.6593271866e-02    1.0099685156e+05
    1.6618426889e-02    1.0094077344e+05
    1.6643559560e-02    1.0087635156e+05
    1.6668669879e-02    1.0081871094e+05
    1.6693757847e-02    1.0075467969e+05
    1.6718825325e-02    1.0069467969e+05
    1.6743874177e-02    1.0063772656e+05
    1.6768900678e-02    1.0057712500e+05
    1.6793908551e-02    1.0051891406e+05
    1.6818899661e-02    1.0046753906e+05
    1.6843874007e-02    1.0042472656e+05
    1.6868829727e-02    1.0038546094e+05
    1.6893770546e-02    1.0034690625e+05
    1.6918692738e-02    1.0031127344e+05
    1.6943598166e-02    1.0028127344e+05
    1.6968490556e-02    1.0026060156e+05
    1.6993366182e-02    1.0024082031e+05
    1.7018226907e-02    1.0023143750e+05
    1.7043072730e-02    1.0022846094e+05
    1.7067901790e-02    1.0022244531e+05
    1.7092714086e-02    1.0022346875e+05
    1.7117511481e-02    1.0022697656e+05
    1.7142292112e-02    1.0022013281e+05
    1.7167057842e-02    1.0022094531e+05
    1.7191808671e-02    1.0022371094e+05
    1.7216544598e-02    1.0022372656e+05
    1.7241263762e-02    1.0022158594e+05
    1.7265968025e-02    1.0021684375e+05
    1.7290659249e-02    1.0019852344e+05
    1.7315333709e-02    1.0018103125e+05
    1.7339993268e-02    1.0016561719e+05
    1.7364639789e-02    1.0015269531e+05
    1.7389267683e-02    1.0013857031e+05
    1.7413880676e-02    1.0012546094e+05
    1.7438478768e-02    1.0011225781e+05
    1.7463061959e-02    1.0009791406e+05
    1.7487626523e-02    1.0009146094e+05
    1.7512176186e-02    1.0008421094e+05
    1.7536709085e-02    1.0007791406e+05
    1.7561223358e-02    1.0006016406e+05
    1.7585720867e-02    1.0004078906e+05
    1.7610201612e-02    1.0003110156e+05
    1.7634663731e-02    1.0001478906e+05
    1.7659107223e-02    1.0000400781e+05
    1.7683532089e-02    9.9984023438e+04
    1.7707940191e-02    9.9959773438e+04
    1.7732329667e-02    9.9929648438e+04
    1.7756698653e-02    9.9905757812e+04
    1.7781050876e-02    9.9871601562e+04
    1.7805384472e-02    9.9841968750e+04
    1.7829699442e-02    9.9805242188e+04
    1.7853999510e-02    9.9766968750e+04
    1.7878280953e-02    9.9733867188e+04
    1.7902545631e-02    9.9693023438e+04
    1.7926793545e-02    9.9669968750e+04
    1.7951028422e-02    9.9649523438e+04
    1.7975246534e-02    9.9637398438e+04
    1.7999447882e-02    9.9636789062e+04
    1.8023636192e-02    9.9647070312e+04
    1.8047811463e-02    9.9660710938e+04
    1.8071975559e-02    9.9687539062e+04
    1.8096126616e-02    9.9731273438e+04
    1.8120266497e-02    9.9783898438e+04
    1.8144397065e-02    9.9854937500e+04
    1.8168520182e-02    9.9927414062e+04
    1.8192630261e-02    1.0000685156e+05
    1.8216732889e-02    1.0009235156e+05
    1.8240824342e-02    1.0018086719e+05
    1.8264908344e-02    1.0027107031e+05
    1.8288983032e-02    1.0035885156e+05
    1.8313048407e-02    1.0043890625e+05
    1.8337102607e-02    1.0051700781e+05
    1.8361147493e-02    1.0058455469e+05
    1.8385183066e-02    1.0065290625e+05
    1.8409207463e-02    1.0071721875e+05
    1.8433224410e-02    1.0077108594e+05
    1.8457230181e-02    1.0082986719e+05
    1.8481226638e-02    1.0088238281e+05
    1.8505210057e-02    1.0092552344e+05
    1.8529184163e-02    1.0097458594e+05
    1.8553148955e-02    1.0101800781e+05
    1.8577100709e-02    1.0106225781e+05
    1.8601041287e-02    1.0110374219e+05
    1.8624972552e-02    1.0113655469e+05
    1.8648892641e-02    1.0116883594e+05
    1.8672801554e-02    1.0120514844e+05
    1.8696699291e-02    1.0123491406e+05
    1.8720587716e-02    1.0126378125e+05
    1.8744463101e-02    1.0128717969e+05
    1.8768329173e-02    1.0131274219e+05
    1.8792184070e-02    1.0133738281e+05
    1.8816027790e-02    1.0136146094e+05
    1.8839860335e-02    1.0138664844e+05
    1.8863683566e-02    1.0141663281e+05
    1.8887493759e-02    1.0144936719e+05
    1.8911294639e-02    1.0148140625e+05
    1.8935086206e-02    1.0152352344e+05
    1.8958866596e-02    1.0156546875e+05
    1.8982635811e-02    1.0162253906e+05
    1.9006397575e-02    1.0168372656e+05
    1.9030146301e-02    1.0175389844e+05
    1.9053885713e-02    1.0183014844e+05
    1.9077615812e-02    1.0192103906e+05
    1.9101334736e-02    1.0202871094e+05
    1.9125042483e-02    1.0214797656e+05
    1.9148740917e-02    1.0227283594e+05
    1.9172428176e-02    1.0241097656e+05
    1.9196104258e-02    1.0255796094e+05
    1.9219771028e-02    1.0271368750e+05
    1.9243424758e-02    1.0286627344e+05
    1.9267069176e-02    1.0301335156e+05
    1.9290700555e-02    1.0315132031e+05
    1.9314322621e-02    1.0327969531e+05
    1.9337931648e-02    1.0338318750e+05
    1.9361529499e-02    1.0346152344e+05
    1.9385114312e-02    1.0350793750e+05
    1.9408687949e-02    1.0353128906e+05
    1.9432250410e-02    1.0351763281e+05
    1.9455801696e-02    1.0347133594e+05
    1.9479339942e-02    1.0339053906e+05
    1.9502865151e-02    1.0327939844e+05
    1.9526379183e-02    1.0314035156e+05
    1.9549878314e-02    1.0296609375e+05
    1.9573366269e-02    1.0276786719e+05
    1.9596841186e-02    1.0254562500e+05
    1.9620303065e-02    1.0231856250e+05
    1.9643751904e-02    1.0209365625e+05
    1.9667187706e-02    1.0188971094e+05
    1.9690606743e-02    1.0170216406e+05
    1.9714014605e-02    1.0154106250e+05
    1.9737409428e-02    1.0141314844e+05
    1.9760791212e-02    1.0130872656e+05
    1.9784159958e-02    1.0123519531e+05
    1.9807513803e-02    1.0118083594e+05
    1.9830854610e-02    1.0114721094e+05
    1.9854182377e-02    1.0113066406e+05
    1.9877497107e-02    1.0112441406e+05
    1.9900798798e-02    1.0112609375e+05
    1.9924087450e-02    1.0113128906e+05
    1.9947361201e-02    1.0114168750e+05
    1.9970623776e-02    1.0115228125e+05
    1.9993871450e-02    1.0116639844e+05
    2.0017107949e-02    1.0116660156e+05
    2.0040329546e-02    1.0117293750e+05
    2.0063538104e-02    1.0116646875e+05
    2.0086731762e-02    1.0116535156e+05
    2.0109914243e-02    1.0117042969e+05
    2.0133081824e-02    1.0116671094e+05
    2.0156236365e-02    1.0117547656e+05
    2.0179376006e-02    1.0117975781e+05
    2.0202504471e-02    1.0119385156e+05
    2.0225618035e-02    1.0121149219e+05
    2.0248720422e-02    1.0123757031e+05
    2.0271807909e-02    1.0127396094e+05
    2.0294882357e-02    1.0131900000e+05
    2.0317947492e-02    1.0137781250e+05
    2.0340997726e-02    1.0144828906e+05
    2.0364036784e-02    1.0153011719e+05
    2.0387060940e-02    1.0162400000e+05
    2.0410073921e-02    1.0171839844e+05
    2.0433073863e-02    1.0181853906e+05
    2.0456060767e-02    1.0192768750e+05
    2.0479036495e-02    1.0203162500e+05
    2.0501999184e-02    1.0213946094e+05
    2.0524948835e-02    1.0223421094e+05
    2.0547885448e-02    1.0233353906e+05
    2.0570809022e-02    1.0242071094e+05
    2.0593719557e-02    1.0249958594e+05
    2.0616617054e-02    1.0256890625e+05
    2.0639499649e-02    1.0262897656e+05
    2.0662369207e-02    1.0268386719e+05
    2.0685223863e-02    1.0272810156e+05
    2.0708063617e-02    1.0276575000e+05
    2.0730890334e-02    1.0279039844e+05
    2.0753700286e-02    1.0281896094e+05
    2.0776495337e-02    1.0283160156e+05
    2.0799275488e-02    1.0283885156e+05
    2.0822042599e-02    1.0284183594e+05
    2.0844791085e-02    1.0283421094e+05
    2.0867524669e-02    1.0281934375e+05
    2.0890241489e-02    1.0280196094e+05
    2.0912945271e-02    1.0277884375e+05
    2.0935632288e-02    1.0274900000e+05
    2.0958306268e-02    1.0271839844e+05
    2.0980965346e-02    1.0268440625e+05
    2.1003607661e-02    1.0264918750e+05
    2.1026238799e-02    1.0261462500e+05
    2.1048855036e-02    1.0257649219e+05
    2.1071458235e-02    1.0254103906e+05
    2.1094048396e-02    1.0250653906e+05
    2.1116625518e-02    1.0247257031e+05
    2.1139191464e-02    1.0243250781e+05
    2.1161744371e-02    1.0239206250e+05
    2.1184286103e-02    1.0234903906e+05
    2.1206818521e-02    1.0230089844e+05
    2.1229337901e-02    1.0225017969e+05
    2.1251846105e-02    1.0219828906e+05
    2.1274344996e-02    1.0215005469e+05
    2.1296832711e-02    1.0209153906e+05
    2.1319312975e-02    1.0203999219e+05
    2.1341778338e-02    1.0197888281e+05
    2.1364232525e-02    1.0192117969e+05
    2.1386675537e-02    1.0186996094e+05
    2.1409107372e-02    1.0182472656e+05
    2.1431528032e-02    1.0178064844e+05
    2.1453931928e-02    1.0174164844e+05
    2.1476324648e-02    1.0171071875e+05
    2.1498700604e-02    1.0168857031e+05
    2.1521063522e-02    1.0168053906e+05
    2.1543409675e-02    1.0167578125e+05
    2.1565740928e-02    1.0168953125e+05
    2.1588053554e-02    1.0170127344e+05
    2.1610351279e-02    1.0171516406e+05
    2.1632634103e-02    1.0173558594e+05
    2.1654898301e-02    1.0176019531e+05
    2.1677147597e-02    1.0178239844e+05
    2.1699378267e-02    1.0181566406e+05
    2.1721594036e-02    1.0184249219e+05
    2.1743793041e-02    1.0186528906e+05
    2.1765975282e-02    1.0188096094e+05
    2.1788140759e-02    1.0189222656e+05
    2.1810289472e-02    1.0190310156e+05
    2.1832419559e-02    1.0190616406e+05
    2.1854531020e-02    1.0189980469e+05
    2.1876627579e-02    1.0188936719e+05
    2.1898705512e-02    1.0187611719e+05
    2.1920768544e-02    1.0187274219e+05
    2.1942811087e-02    1.0185167969e+05
    2.1964838728e-02    1.0183135156e+05
    2.1986849606e-02    1.0181053906e+05
    2.2008845583e-02    1.0179053125e+05
    2.2030822933e-02    1.0177264844e+05
    2.2052785382e-02    1.0175147656e+05
    2.2074732929e-02    1.0173450781e+05
    2.2096665576e-02    1.0172174219e+05
    2.2118583322e-02    1.0171722656e+05
    2.2140489891e-02    1.0169821094e+05
    2.2162377834e-02    1.0168721094e+05
    2.2184254602e-02    1.0167756250e+05
    2.2206118330e-02    1.0166935156e+05
    2.2227969021e-02    1.0166562500e+05
    2.2249806672e-02    1.0166107031e+05
    2.2271629423e-02    1.0165064844e+05
    2.2293440998e-02    1.0163692969e+05
    2.2315241396e-02    1.0162647656e+05
    2.2337028757e-02    1.0161616406e+05
    2.2358803079e-02    1.0160828906e+05
    2.2380566224e-02    1.0160185156e+05
    2.2402318195e-02    1.0159356250e+05
    2.2424057126e-02    1.0159042969e+05
    2.2445784882e-02    1.0158743750e+05
    2.2467501462e-02    1.0158518750e+05
    2.2489206865e-02    1.0157959375e+05
    2.2510899231e-02    1.0157746875e+05
    2.2532582283e-02    1.0157118750e+05
    2.2554252297e-02    1.0156409375e+05
    2.2575911134e-02    1.0156796094e+05
    2.2597560659e-02    1.0156552344e+05
    2.2619199008e-02    1.0156106250e+05
    2.2640828043e-02    1.0156147656e+05
    2.2662445903e-02    1.0155764844e+05
    2.2684050724e-02    1.0155875781e+05
    2.2705646232e-02    1.0155306250e+05
    2.2727232426e-02    1.0155200000e+05
    2.2748809308e-02    1.0154869531e+05
    2.2770375013e-02    1.0154321094e+05
    2.2791929543e-02    1.0153990625e+05
    2.2813472897e-02    1.0153533594e+05
    2.2835006937e-02    1.0153034375e+05
    2.2856531665e-02    1.0151933594e+05
    2.2878047079e-02    1.0151471875e+05
    2.2899549454e-02    1.0151013281e+05
    2.2921044379e-02    1.0150185156e+05
    2.2942528129e-02    1.0149566406e+05
    2.2964000702e-02    1.0148353906e+05
    2.2985465825e-02    1.0147553125e+05
    2.3006917909e-02    1.0147687500e+05
    2.3028360680e-02    1.0147280469e+05
    2.3049792275e-02    1.0146906250e+05
    2.3071214557e-02    1.0146924219e+05
    2.3092625663e-02    1.0146391406e+05
    2.3114029318e-02    1.0146124219e+05
    2.3135419935e-02    1.0146943750e+05
    2.3156799376e-02    1.0147599219e+05
    2.3178169504e-02    1.0148009375e+05
    2.3199530318e-02    1.0147978906e+05
    2.3220879957e-02    1.0147871094e+05
    2.3242218420e-02    1.0148018750e+05
    2.3263547570e-02    1.0148571875e+05
    2.3284865543e-02    1.0148971094e+05
    2.3306174204e-02    1.0150127344e+05
    2.3327469826e-02    1.0150671094e+05
    2.3348756135e-02    1.0151446094e+05
    2.3370031267e-02    1.0151102344e+05
    2.3391297087e-02    1.0151418750e+05
    2.3412553594e-02    1.0151617969e+05
    2.3433798924e-02    1.0152061719e+05
    2.3455033079e-02    1.0152632031e+05
    2.3476256058e-02    1.0152725000e+05
    2.3497469723e-02    1.0151871094e+05
    2.3518672213e-02    1.0152021094e+05
    2.3539865389e-02    1.0152178906e+05
    2.3561049253e-02    1.0152366406e+05
    2.3582221940e-02    1.0152452344e+05
    2.3603385314e-02    1.0152525781e+05
    2.3624535650e-02    1.0152910156e+05
    2.3645676672e-02    1.0152434375e+05
    2.3666808382e-02    1.0152624219e+05
    2.3687927052e-02    1.0152694531e+05
    2.3709038273e-02    1.0152311719e+05
    2.3730138317e-02    1.0152249219e+05
    2.3751227185e-02    1.0152300781e+05
    2.3772306740e-02    1.0152452344e+05
    2.3793375120e-02    1.0152615625e+05
    2.3814432323e-02    1.0152789844e+05
    2.3835480213e-02    1.0152859375e+05
    2.3856516927e-02    1.0153158594e+05
    2.3877544329e-02    1.0152537500e+05
    2.3898560554e-02    1.0152628906e+05
    2.3919565603e-02    1.0153519531e+05
    2.3940561339e-02    1.0153533594e+05
    2.3961545900e-02    1.0153785156e+05
    2.3982519284e-02    1.0153787500e+05
    2.4003483355e-02    1.0154003906e+05
    2.4024436250e-02    1.0154228125e+05
    2.4045377970e-02    1.0154222656e+05
    2.4066310376e-02    1.0154196094e+05
    2.4087233469e-02    1.0154018750e+05
    2.4108145386e-02    1.0153103906e+05
    2.4129044265e-02    1.0153085156e+05
    2.4149935693e-02    1.0153044531e+05
    2.4170814082e-02    1.0152753906e+05
    2.4191683158e-02    1.0152672656e+05
    2.4212542921e-02    1.0152328906e+05
    2.4233391508e-02    1.0151559375e+05
    2.4254228920e-02    1.0150252344e+05
    2.4275057018e-02    1.0149553906e+05
    2.4295873940e-02    1.0148540625e+05
    2.4316681549e-02    1.0147387500e+05
    2.4337477982e-02    1.0146657031e+05
    2.4358265102e-02    1.0146021094e+05
    2.4379042909e-02    1.0145271094e+05
    2.4399809539e-02    1.0144316406e+05
    2.4420566857e-02    1.0144152344e+05
    2.4441312999e-02    1.0144116406e+05
    2.4462047964e-02    1.0143635156e+05
    2.4482775480e-02    1.0142927344e+05
    2.4503491819e-02    1.0141959375e+05
    2.4524198845e-02    1.0141343750e+05
    2.4544894695e-02    1.0141889844e+05
    2.4565581232e-02    1.0141439844e+05
    2.4586258456e-02    1.0141006250e+05
    2.4606924504e-02    1.0140600000e+05
    2.4627581239e-02    1.0140465625e+05
    2.4648228660e-02    1.0140859375e+05
    2.4668866768e-02    1.0140958594e+05
    2.4689495564e-02    1.0141469531e+05
    2.4710113183e-02    1.0141996094e+05
    2.4730721489e-02    1.0141781250e+05
    2.4751318619e-02    1.0142415625e+05
    2.4771906435e-02    1.0142856250e+05
    2.4792486802e-02    1.0143266406e+05
    2.4813055992e-02    1.0143958594e+05
    2.4833614007e-02    1.0145191406e+05
    2.4854162708e-02    1.0146049219e+05
    2.4874702096e-02    1.0147071094e+05
    2.4895232171e-02    1.0147963281e+05
    2.4915752932e-02    1.0149399219e+05
    2.4936262518e-02    1.0150456250e+05
    2.4956764653e-02    1.0152203906e+05
    2.4977253750e-02    1.0154034375e+05
    2.4997735396e-02    1.0155708594e+05
    2.5018205866e-02    1.0156753906e+05
    2.5038668886e-02    1.0158075000e+05
    2.5059120730e-02    1.0159622656e+05
    2.5079563260e-02    1.0160522656e+05
    2.5099996477e-02    1.0162458594e+05
    2.5120420381e-02    1.0162889844e+05
    2.5140833110e-02    1.0163311719e+05
    2.5161236525e-02    1.0164353906e+05
    2.5181630626e-02    1.0164296875e+05
    2.5202017277e-02    1.0163917969e+05
    2.5222390890e-02    1.0163878906e+05
    2.5242757052e-02    1.0163610156e+05
    2.5263112038e-02    1.0162183594e+05
    2.5283459574e-02    1.0161406250e+05
    2.5303795934e-02    1.0159669531e+05
    2.5324124843e-02    1.0158181250e+05
    2.5344440714e-02    1.0155585156e+05
    2.5364749134e-02    1.0152952344e+05
    2.5385048240e-02    1.0149364844e+05
    2.5405339897e-02    1.0146310156e+05
    2.5425618514e-02    1.0142547656e+05
    2.5445887819e-02    1.0139183594e+05
    2.5466147810e-02    1.0136228906e+05
    2.5486400351e-02    1.0132907031e+05
    2.5506639853e-02    1.0129814844e+05
    2.5526873767e-02    1.0127238281e+05
    2.5547094643e-02    1.0125110156e+05
    2.5567308068e-02    1.0124191406e+05
    2.5587510318e-02    1.0123272656e+05
    2.5607703254e-02    1.0123108594e+05
    2.5627886876e-02    1.0123500000e+05
    2.5648061186e-02    1.0124939844e+05
    2.5668226182e-02    1.0126346094e+05
    2.5688380003e-02    1.0128581250e+05
    2.5708526373e-02    1.0130503906e+05
    2.5728661567e-02    1.0132478906e+05
    2.5748789310e-02    1.0135496094e+05
    2.5768904015e-02    1.0138060156e+05
    2.5789011270e-02    1.0140394531e+05
    2.5809109211e-02    1.0143275781e+05
    2.5829195976e-02    1.0145739844e+05
    2.5849273428e-02    1.0147772656e+05
    2.5869343430e-02    1.0150013281e+05
    2.5889402255e-02    1.0152221094e+05
    2.5909451768e-02    1.0153875781e+05
    2.5929493830e-02    1.0155097656e+05
    2.5949522853e-02    1.0156307031e+05
    2.5969544426e-02    1.0157380469e+05
    2.5989556685e-02    1.0158893750e+05
    2.6009559631e-02    1.0160064844e+05
    2.6029553264e-02    1.0161597656e+05
    2.6049537584e-02    1.0162802344e+05
    2.6069512591e-02    1.0164833594e+05
    2.6089478284e-02    1.0166715625e+05
    2.6109432802e-02    1.0168858594e+05
    2.6129379869e-02    1.0170490625e+05
    2.6149315760e-02    1.0172643750e+05
    2.6169244200e-02    1.0174732031e+05
    2.6189163327e-02    1.0177558594e+05
    2.6209073141e-02    1.0179743750e+05
    2.6228975505e-02    1.0181547656e+05
    2.6248866692e-02    1.0184097656e+05
    2.6268748567e-02    1.0186771094e+05
    2.6288621128e-02    1.0188303906e+05
    2.6308484375e-02    1.0189967969e+05
    2.6328338310e-02    1.0191839844e+05
    2.6348184794e-02    1.0193689844e+05
    2.6368021965e-02    1.0194878906e+05
    2.6387847960e-02    1.0195500000e+05
    2.6407664642e-02    1.0196078906e+05
    2.6427472010e-02    1.0195838281e+05
    2.6447271928e-02    1.0196127344e+05
    2.6467062533e-02    1.0195588281e+05
    2.6486843824e-02    1.0195232031e+05
    2.6506617665e-02    1.0194747656e+05
    2.6526380330e-02    1.0194485156e+05
    2.6546133682e-02    1.0193153906e+05
    2.6565877721e-02    1.0192341406e+05
    2.6585612446e-02    1.0190928906e+05
    2.6605339721e-02    1.0190036719e+05
    2.6625057682e-02    1.0188072656e+05
    2.6644766331e-02    1.0186407031e+05
    2.6664465666e-02    1.0184827344e+05
    2.6684155688e-02    1.0182864844e+05
    2.6703836396e-02    1.0181112500e+05
    2.6723509654e-02    1.0179028906e+05
    2.6743173599e-02    1.0177889844e+05
    2.6762828231e-02    1.0175627344e+05
    2.6782475412e-02    1.0174078906e+05
    2.6802113280e-02    1.0172239844e+05
    2.6821739972e-02    1.0169990625e+05
    2.6841359213e-02    1.0168133594e+05
    2.6860967278e-02    1.0166487500e+05
    2.6880569756e-02    1.0165157031e+05
    2.6900164783e-02    1.0164297656e+05
    2.6919748634e-02    1.0163008594e+05
    2.6939325035e-02    1.0161747656e+05
    2.6958892122e-02    1.0161336719e+05
    2.6978449896e-02    1.0160278906e+05
    2.6997998357e-02    1.0159475781e+05
    2.7017539367e-02    1.0158960156e+05
    2.7037071064e-02    1.0158365625e+05
    2.7056595311e-02    1.0157614844e+05
    2.7076110244e-02    1.0157847656e+05
    2.7095617726e-02    1.0157402344e+05
    2.7115115896e-02    1.0157710156e+05
    2.7134604752e-02    1.0157881250e+05
    2.7154086158e-02    1.0158135156e+05
    2.7173558250e-02    1.0158578906e+05
    2.7193021029e-02    1.0158777344e+05
    2.7212476358e-02    1.0158781250e+05
    2.7231922373e-02    1.0159202344e+05
    2.7251357213e-02    1.0159215625e+05
    2.7270786464e-02    1.0159889844e+05
    2.7290204540e-02    1.0160872656e+05
    2.7309613302e-02    1.0161125000e+05
    2.7329014614e-02    1.0162111719e+05
    2.7348404750e-02    1.0162211719e+05
    2.7367785573e-02    1.0162437500e+05
    2.7387158945e-02    1.0162452344e+05
    2.7406521142e-02    1.0162608594e+05
    2.7425874025e-02    1.0163731250e+05
    2.7445219457e-02    1.0163991406e+05
    2.7464553714e-02    1.0165213281e+05
    2.7483878657e-02    1.0165646875e+05
    2.7503194287e-02    1.0166062500e+05
    2.7522502467e-02    1.0166243750e+05
    2.7541799471e-02    1.0166428125e+05
    2.7561087161e-02    1.0166971094e+05
    2.7580365539e-02    1.0168028906e+05
    2.7599634603e-02    1.0168691406e+05
    2.7618894354e-02    1.0169168750e+05
    2.7638144791e-02    1.0170484375e+05
    2.7657385916e-02    1.0171119531e+05
    2.7676619589e-02    1.0170950781e+05
    2.7695843950e-02    1.0171210156e+05
    2.7715058997e-02    1.0172630469e+05
    2.7734262869e-02    1.0173378906e+05
    2.7753459290e-02    1.0173903906e+05
    2.7772648260e-02    1.0174435156e+05
    2.7791827917e-02    1.0174858594e+05
    2.7810998261e-02    1.0175290625e+05
    2.7830159292e-02    1.0176293750e+05
    2.7849311009e-02    1.0176860156e+05
    2.7868455276e-02    1.0176869531e+05
    2.7887590230e-02    1.0177416406e+05
    2.7906717733e-02    1.0178060156e+05
    2.7925835922e-02    1.0178585156e+05
    2.7944946662e-02    1.0179109375e+05
    2.7964048088e-02    1.0179617969e+05
    2.7983140200e-02    1.0180107031e+05
    2.8002224863e-02    1.0180350000e+05
    2.8021300212e-02    1.0180474219e+05
    2.8040368110e-02    1.0181014844e+05
    2.8059426695e-02    1.0181460156e+05
    2.8078475967e-02    1.0181683594e+05
    2.8097519651e-02    1.0182706250e+05
    2.8116554022e-02    1.0183516406e+05
    2.8135580942e-02    1.0183544531e+05
    2.8154598549e-02    1.0184006250e+05
    2.8173606843e-02    1.0183978906e+05
    2.8192607686e-02    1.0184303906e+05
    2.8211599216e-02    1.0184836719e+05
    2.8230583295e-02    1.0185230469e+05
    2.8249559924e-02    1.0185158594e+05
    2.8268527240e-02    1.0185138281e+05
    2.8287487105e-02    1.0185352344e+05
    2.8306435794e-02    1.0185919531e+05
    2.8325378895e-02    1.0186150000e+05
    2.8344312683e-02    1.0186378906e+05
    2.8363237157e-02    1.0186594531e+05
    2.8382156044e-02    1.0187003906e+05
    2.8401065618e-02    1.0186803906e+05
    2.8419965878e-02    1.0186303125e+05
    2.8438858688e-02    1.0186471094e+05
    2.8457742184e-02    1.0186750000e+05
    2.8476616368e-02    1.0186671875e+05
    2.8495483100e-02    1.0186699219e+05
    2.8514338657e-02    1.0186824219e+05
    2.8533160686e-02    1.0186477344e+05
    2.8551930562e-02    1.0186331250e+05
    2.8570635244e-02    1.0185899219e+05
    2.8589271009e-02    1.0186028906e+05
    2.8607837856e-02    1.0185914844e+05
    2.8626350686e-02    1.0185783594e+05
    2.8644818813e-02    1.0185642969e+05
    2.8663259000e-02    1.0185622656e+05
    2.8681686148e-02    1.0185607031e+05
    2.8700113297e-02    1.0185599219e+05
    2.8718546033e-02    1.0185689844e+05
    2.8736986220e-02    1.0185524219e+05
    2.8755431995e-02    1.0185034375e+05
    2.8773877770e-02    1.0185191406e+05
    2.8792314231e-02    1.0185375000e+05
    2.8810730204e-02    1.0185097656e+05
    2.8829116374e-02    1.0185047656e+05
    2.8847465292e-02    1.0184996094e+05
    2.8865773231e-02    1.0184933594e+05
    2.8884036466e-02    1.0184641406e+05
    2.8902258724e-02    1.0184568750e+05
    2.8920443729e-02    1.0184383594e+05
    2.8938598931e-02    1.0184430469e+05
    2.8956729919e-02    1.0184827344e+05
    2.8974846005e-02    1.0184680469e+05
    2.8992949054e-02    1.0184637500e+05
    2.9011042789e-02    1.0184486719e+05
    2.9029129073e-02    1.0184428906e+05
    2.9047204182e-02    1.0184360156e+05
    2.9065268114e-02    1.0184421094e+05
    2.9083315283e-02    1.0184372656e+05
    2.9101338238e-02    1.0184216406e+05
    2.9119335115e-02    1.0184392969e+05
    2.9137304053e-02    1.0184357031e+05
    2.9155241325e-02    1.0184450781e+05
    2.9173148796e-02    1.0184332031e+05
    2.9191024601e-02    1.0184456250e+05
    2.9208874330e-02    1.0184602344e+05
    2.9226697981e-02    1.0184541406e+05
    2.9244501144e-02    1.0184953906e+05
    2.9262285680e-02    1.0185481250e+05
    2.9280053452e-02    1.0185589844e+05
    2.9297806323e-02    1.0185697656e+05
    2.9315544292e-02    1.0185933594e+05
    2.9333265498e-02    1.0185928125e+05
    2.9350971803e-02    1.0185803906e+05
    2.9368655756e-02    1.0185677344e+05
    2.9386319220e-02    1.0185775000e+05
    2.9403960332e-02    1.0186353906e+05
    2.9421577230e-02    1.0186236719e+05
    2.9439168051e-02    1.0186138281e+05
    2.9456734657e-02    1.0186278906e+05
    2.9474277049e-02    1.0186993750e+05
    2.9491795227e-02    1.0187025781e+05
    2.9509292915e-02    1.0186934375e+05
    2.9526771978e-02    1.0187303906e+05
    2.9544232413e-02    1.0187458594e+05
    2.9561674222e-02    1.0187603125e+05
    2.9579099268e-02    1.0187749219e+05
    2.9596509412e-02    1.0187885156e+05
    2.9613900930e-02    1.0187911719e+05
    2.9631273821e-02    1.0187939844e+05
    2.9648626223e-02    1.0188077344e+05
    2.9665958136e-02    1.0188222656e+05
    2.9683271423e-02    1.0188365625e+05
    2.9700560495e-02    1.0189097656e+05
    2.9717829078e-02    1.0189359375e+05
    2.9735075310e-02    1.0188793750e+05
    2.9752301052e-02    1.0188931250e+05
    2.9769508168e-02    1.0190000781e+05
    2.9786696658e-02    1.0189359375e+05
    2.9803866521e-02    1.0189871875e+05
    2.9821017757e-02    1.0189813281e+05
    2.9838152230e-02    1.0190197656e+05
    2.9855269939e-02    1.0190344531e+05
    2.9872370884e-02    1.0189782031e+05
    2.9889453202e-02    1.0189910156e+05
    2.9906518757e-02    1.0190278125e+05
    2.9923565686e-02    1.0190419531e+05
    2.9940593988e-02    1.0190671094e+05
    2.9957601801e-02    1.0190808594e+05
    2.9974590987e-02    1.0190949219e+05
    2.9991561547e-02    1.0191089844e+05
    3.0008511618e-02    1.0191218750e+05
    3.0025444925e-02    1.0191228125e+05
    3.0042361468e-02    1.0191346094e+05
    3.0059259385e-02    1.0191222656e+05
    3.0076142401e-02    1.0191325000e+05
    3.0093006790e-02    1.0191421094e+05
    3.0109854415e-02    1.0191635156e+05
    3.0126683414e-02    1.0191841406e+05
    3.0143497512e-02    1.0191359375e+05
    3.0160292983e-02    1.0191533594e+05
    3.0177071691e-02    1.0191812500e+05
    3.0193833634e-02    1.0191375781e+05
    3.0210576952e-02    1.0191399219e+05
    3.0227303505e-02    1.0191421875e+05
    3.0244011432e-02    1.0191913281e+05
    3.0260702595e-02    1.0191689844e+05
    3.0277376994e-02    1.0191468750e+05
    3.0294034630e-02    1.0191957031e+05
    3.0310675502e-02    1.0191989844e+05
    3.0327299610e-02    1.0191791406e+05
    3.0343905091e-02    1.0191378125e+05
    3.0360495672e-02    1.0191650000e+05
    3.0377071351e-02    1.0191944531e+05
    3.0393628404e-02    1.0192353906e+05
    3.0410168692e-02    1.0192406250e+05
    3.0426690355e-02    1.0191769531e+05
    3.0443195254e-02    1.0191661719e+05
    3.0459685251e-02    1.0191530469e+05
    3.0476156622e-02    1.0191627344e+05
    3.0492611229e-02    1.0191622656e+05
    3.0509050936e-02    1.0192209375e+05
    3.0525473878e-02    1.0191427344e+05
    3.0541881919e-02    1.0192141406e+05
    3.0558273196e-02    1.0192425000e+05
    3.0574647710e-02    1.0192278906e+05
    3.0591005459e-02    1.0192610156e+05
    3.0607348308e-02    1.0192949219e+05
    3.0623674393e-02    1.0193308594e+05
    3.0639985576e-02    1.0192758594e+05
    3.0656279996e-02    1.0193094531e+05
    3.0672557652e-02    1.0192963281e+05
    3.0688818544e-02    1.0193275000e+05
    3.0705062672e-02    1.0193347656e+05
    3.0721291900e-02    1.0193458594e+05
    3.0737506226e-02    1.0194180469e+05
    3.0753703788e-02    1.0194439844e+05
    3.0769886449e-02    1.0193888281e+05
    3.0786054209e-02    1.0194024219e+05
    3.0802207068e-02    1.0194155469e+05
    3.0818343163e-02    1.0194741406e+05
    3.0834466219e-02    1.0195334375e+05
    3.0850572512e-02    1.0194433594e+05
    3.0866663903e-02    1.0194682031e+05
    3.0882738531e-02    1.0195158594e+05
    3.0898798257e-02    1.0195186719e+05
    3.0914843082e-02    1.0195322656e+05
    3.0930871144e-02    1.0195215625e+05
    3.0946886167e-02    1.0195560156e+05
    3.0962884426e-02    1.0195446875e+05
    3.0978867784e-02    1.0195672656e+05
    3.0994836241e-02    1.0195905469e+05
    3.1010789797e-02    1.0195800781e+05
    3.1026728451e-02    1.0196153906e+05
    3.1042650342e-02    1.0196278906e+05
    3.1058559194e-02    1.0196160156e+05
    3.1074455008e-02    1.0196383594e+05
    3.1090334058e-02    1.0196125781e+05
    3.1106200069e-02    1.0196217969e+05
    3.1122051179e-02    1.0196297656e+05
    3.1137887388e-02    1.0196362500e+05
    3.1153710559e-02    1.0196071094e+05
    3.1169516966e-02    1.0196071875e+05
    3.1185310334e-02    1.0194999219e+05
    3.1201090664e-02    1.0194936719e+05
    3.1216854230e-02    1.0195080469e+05
    3.1232602894e-02    1.0194996094e+05
    3.1248336658e-02    1.0194919531e+05
    3.1264055520e-02    1.0194856250e+05
    3.1279761344e-02    1.0194800000e+05
    3.1295452267e-02    1.0194747656e+05
    3.1311132014e-02    1.0194578906e+05
    3.1326796860e-02    1.0194640625e+05
    3.1342446804e-02    1.0194814844e+05
    3.1358085573e-02    1.0194533594e+05
    3.1373709440e-02    1.0194372656e+05
    3.1389318407e-02    1.0194452344e+05
    3.1404916197e-02    1.0194210156e+05
    3.1420499086e-02    1.0195364844e+05
    3.1436067075e-02    1.0195191406e+05
    3.1451620162e-02    1.0195753125e+05
    3.1467158347e-02    1.0196328125e+05
    3.1482685357e-02    1.0197083594e+05
    3.1498193741e-02    1.0197177344e+05
    3.1513694674e-02    1.0197875781e+05
    3.1529176980e-02    1.0198641406e+05
    3.1544648111e-02    1.0199678125e+05
    3.1560108066e-02    1.0200286719e+05
    3.1575553119e-02    1.0201139844e+05
    3.1590986997e-02    1.0201927344e+05
    3.1606405973e-02    1.0202256250e+05
    3.1621813774e-02    1.0202590625e+05
    3.1637206674e-02    1.0203165625e+05
    3.1652588397e-02    1.0204078906e+05
    3.1667951494e-02    1.0204442969e+05
    3.1683307141e-02    1.0205033594e+05
    3.1698647887e-02    1.0205507031e+05
    3.1713977456e-02    1.0205969531e+05
    3.1729292125e-02    1.0205964844e+05
    3.1744595617e-02    1.0205685156e+05
    3.1759884208e-02    1.0206314844e+05
    3.1775161624e-02    1.0206689844e+05
    3.1790427864e-02    1.0206002344e+05
    3.1805675477e-02    1.0206314844e+05
    3.1820915639e-02    1.0206711719e+05
    3.1836140901e-02    1.0206281250e+05
    3.1851354986e-02    1.0206283594e+05
    3.1866557896e-02    1.0206610156e+05
    3.1881745905e-02    1.0206908594e+05
    3.1896922737e-02    1.0206028906e+05
    3.1912088394e-02    1.0206261719e+05
    3.1927239150e-02    1.0206358594e+05
    3.1942378730e-02    1.0206178906e+05
    3.1957507133e-02    1.0205543750e+05
    3.1972620636e-02    1.0205552344e+05
    3.1987726688e-02    1.0205546094e+05
    3.2002814114e-02    1.0205293750e+05
    3.2017890364e-02    1.0205485156e+05
    3.2032959163e-02    1.0204968750e+05
    3.2048013061e-02    1.0204459375e+05
    3.2063052058e-02    1.0204391406e+05
    3.2078083605e-02    1.0204546094e+05
    3.2093103975e-02    1.0204466406e+05
    3.2108109444e-02    1.0204163281e+05
    3.2123107463e-02    1.0204087500e+05
    3.2138090581e-02    1.0204011719e+05
    3.2153062522e-02    1.0203946875e+05
    3.2168023288e-02    1.0204114844e+05
    3.2182972878e-02    1.0203831250e+05
    3.2197911292e-02    1.0203780469e+05
    3.2212834805e-02    1.0203953906e+05
    3.2227750868e-02    1.0204135156e+05
    3.2242652029e-02    1.0204100781e+05
    3.2257542014e-02    1.0204071094e+05
    3.2272424549e-02    1.0204158594e+05
    3.2287292182e-02    1.0204157031e+05
    3.2302148640e-02    1.0204010156e+05
    3.2316997647e-02    1.0203975000e+05
    3.2331831753e-02    1.0203943750e+05
    3.2346658409e-02    1.0203439844e+05
    3.2361470163e-02    1.0203392969e+05
    3.2376270741e-02    1.0203339844e+05
    3.2391063869e-02    1.0203303906e+05
    3.2405842096e-02    1.0203261719e+05
    3.2420612872e-02    1.0203214844e+05
    3.2435368747e-02    1.0203162500e+05
    3.2450113446e-02    1.0203103906e+05
    3.2464850694e-02    1.0203049219e+05
    3.2479573041e-02    1.0202993750e+05
    3.2494287938e-02    1.0202941406e+05
    3.2508991659e-02    1.0202896094e+05
    3.2523684204e-02    1.0203083594e+05
    3.2538365573e-02    1.0202925000e+05
    3.2553035766e-02    1.0202764844e+05
    3.2567698509e-02    1.0202725000e+05
    3.2582346350e-02    1.0202918750e+05
    3.2596986741e-02    1.0202775781e+05
    3.2611619681e-02    1.0202639844e+05
    3.2626237720e-02    1.0202840625e+05
    3.2640848309e-02    1.0202808594e+05
    3.2655447721e-02    1.0202758594e+05
    3.2670035958e-02    1.0202467969e+05
    3.2684613019e-02    1.0202389844e+05
    3.2699178904e-02    1.0202297656e+05
    3.2713737339e-02    1.0202197656e+05
    3.2728284597e-02    1.0202087500e+05
    3.2742820680e-02    1.0201971094e+05
    3.2757349312e-02    1.0201403906e+05
    3.2771866769e-02    1.0201741406e+05
    3.2786373049e-02    1.0201757031e+05
    3.2800871879e-02    1.0201791406e+05
    3.2815355808e-02    1.0201502344e+05
    3.2829832286e-02    1.0201464844e+05
    3.2844301313e-02    1.0201439844e+05
    3.2858755440e-02    1.0202339844e+05
    3.2873202115e-02    1.0202564844e+05
    3.2887637615e-02    1.0202571094e+05
    3.2902065665e-02    1.0202462500e+05
    3.2916482538e-02    1.0202341406e+05
    3.2930891961e-02    1.0202338281e+05
    3.2945290208e-02    1.0201410156e+05
    3.2959677279e-02    1.0201521094e+05
    3.2974056900e-02    1.0202334375e+05
    3.2988425344e-02    1.0202360156e+05
    3.3002786338e-02    1.0202389844e+05
    3.3017136157e-02    1.0202533594e+05
    3.3031478524e-02    1.0202447656e+05
    3.3045809716e-02    1.0202584375e+05
    3.3060129732e-02    1.0202496094e+05
    3.3074442297e-02    1.0202522656e+05
    3.3088747412e-02    1.0202435156e+05
    3.3103041351e-02    1.0202575000e+05
    3.3117324114e-02    1.0202363281e+05
    3.3131599426e-02    1.0202600781e+05
    3.3145863563e-02    1.0202714844e+05
    3.3160120249e-02    1.0202374219e+05
    3.3174365759e-02    1.0202133594e+05
    3.3188603818e-02    1.0202133594e+05
    3.3202830702e-02    1.0201891406e+05
    3.3217050135e-02    1.0202110156e+05
    3.3231258392e-02    1.0202467969e+05
    3.3245459199e-02    1.0202352344e+05
    3.3259648830e-02    1.0202350000e+05
    3.3273831010e-02    1.0201883594e+05
    3.3288005739e-02    1.0201857031e+05
    3.3302169293e-02    1.0201353906e+05
    3.3316325396e-02    1.0201322656e+05
    3.3330474049e-02    1.0201299219e+05
    3.3344611526e-02    1.0201737500e+05
    3.3358741552e-02    1.0201960156e+05
    3.3372864127e-02    1.0202203906e+05
    3.3386975527e-02    1.0202224219e+05
    3.3401079476e-02    1.0201642969e+05
    3.3415172249e-02    1.0202319531e+05
    3.3429257572e-02    1.0202199219e+05
    3.3443335444e-02    1.0201472656e+05
    3.3457405865e-02    1.0201314844e+05
    3.3471468836e-02    1.0201159375e+05
    3.3485524356e-02    1.0201125000e+05
    3.3499568701e-02    1.0201332031e+05
    3.3513605595e-02    1.0201438281e+05
    3.3527631313e-02    1.0201547656e+05
    3.3541653305e-02    1.0201318750e+05
    3.3555664122e-02    1.0201536719e+05
    3.3569667488e-02    1.0201538281e+05
    3.3583663404e-02    1.0201541406e+05
    3.3597648144e-02    1.0201547656e+05
    3.3611625433e-02    1.0201674219e+05
    3.3625595272e-02    1.0201582031e+05
    3.3639557660e-02    1.0201611719e+05
    3.3653512597e-02    1.0201644531e+05
    3.3667460084e-02    1.0202125000e+05
    3.3681396395e-02    1.0202293750e+05
    3.3695328981e-02    1.0201732031e+05
    3.3709254116e-02    1.0201741406e+05
    3.3723168075e-02    1.0201628125e+05
    3.3737078309e-02    1.0201734375e+05
    3.3750977367e-02    1.0201710156e+05
    3.3764872700e-02    1.0201675000e+05
    3.3778760582e-02    1.0201634375e+05
    3.3792637289e-02    1.0201803906e+05
    3.3806510270e-02    1.0201506250e+05
    3.3820372075e-02    1.0200515625e+05
    3.3834230155e-02    1.0200434375e+05
    3.3848077059e-02    1.0201066406e+05
    3.3861916512e-02    1.0201232031e+05
    3.3875752240e-02    1.0201185156e+05
    3.3889576793e-02    1.0201378906e+05
    3.3903393894e-02    1.0201352344e+05
    3.3917203546e-02    1.0201327344e+05
    3.3931009471e-02    1.0201074219e+05
    3.3944804221e-02    1.0201161719e+05
    3.3958595246e-02    1.0201241406e+05
    3.3972378820e-02    1.0200050781e+05
    3.3986151218e-02    1.0200094531e+05
    3.3999919891e-02    1.0199908594e+05
    3.4013681114e-02    1.0199846094e+05
    3.4027434886e-02    1.0200146094e+05
    3.4041177481e-02    1.0200439844e+05
    3.4054916352e-02    1.0200725000e+05
    3.4068647772e-02    1.0200077344e+05
    3.4082375467e-02    1.0199540625e+05
    3.4096091986e-02    1.0199333594e+05
    3.4109804779e-02    1.0199340625e+05
    3.4123510122e-02    1.0199465625e+05
    3.4137208015e-02    1.0198866406e+05
    3.4150898457e-02    1.0198491406e+05
    3.4164581448e-02    1.0198319531e+05
    3.4178260714e-02    1.0198125000e+05
    3.4191932529e-02    1.0197453906e+05
    3.4205596894e-02    1.0196846094e+05
    3.4219253808e-02    1.0196582031e+05
    3.4232903272e-02    1.0196193750e+05
    3.4246545285e-02    1.0196035156e+05
    3.4260183573e-02    1.0195884375e+05
    3.4273810685e-02    1.0195635156e+05
    3.4287434071e-02    1.0195286719e+05
    3.4301050007e-02    1.0194953125e+05
    3.4314658493e-02    1.0195438281e+05
    3.4328263253e-02    1.0195469531e+05
    3.4341860563e-02    1.0194821875e+05
    3.4355450422e-02    1.0194613281e+05
    3.4369036555e-02    1.0194174219e+05
    3.4382611513e-02    1.0193958594e+05
    3.4396182746e-02    1.0193752344e+05
    3.4409742802e-02    1.0193999219e+05
    3.4423299134e-02    1.0193577344e+05
    3.4436848015e-02    1.0193383594e+05
    3.4450393170e-02    1.0192741406e+05
    3.4463927150e-02    1.0192550000e+05
    3.4477461129e-02    1.0192358594e+05
    3.4490987659e-02    1.0192285156e+05
    3.4504506737e-02    1.0192899219e+05
    3.4518022090e-02    1.0192725000e+05
    3.4531529993e-02    1.0192193750e+05
    3.4545030445e-02    1.0191662500e+05
    3.4558523446e-02    1.0191449219e+05
    3.4572008997e-02    1.0191110156e+05
    3.4585487098e-02    1.0190766406e+05
    3.4598957747e-02    1.0190775000e+05
    3.4612424672e-02    1.0190347656e+05
    3.4625884145e-02    1.0190855469e+05
    3.4639336169e-02    1.0190928906e+05
    3.4652780741e-02    1.0190325781e+05
    3.4666225314e-02    1.0189944531e+05
    3.4679658711e-02    1.0190021875e+05
    3.4693088382e-02    1.0190341406e+05
    3.4706510603e-02    1.0190653125e+05
    3.4719929099e-02    1.0190052344e+05
    3.4733340144e-02    1.0189583594e+05
    3.4746743739e-02    1.0189342969e+05
    3.4760143608e-02    1.0189210156e+05
    3.4773536026e-02    1.0189652344e+05
    3.4786924720e-02    1.0189639844e+05
    3.4800305963e-02    1.0189761719e+05
    3.4813679755e-02    1.0189419531e+05
    3.4827046096e-02    1.0188858594e+05
    3.4840408713e-02    1.0188982031e+05
    3.4853763878e-02    1.0188874219e+05
    3.4867111593e-02    1.0188960156e+05
    3.4880455583e-02    1.0189062500e+05
    3.4893795848e-02    1.0188934375e+05
    3.4907124937e-02    1.0188557031e+05
    3.4920454025e-02    1.0187844531e+05
    3.4933775663e-02    1.0187587500e+05
    3.4947093576e-02    1.0188150000e+05
    3.4960404038e-02    1.0188028125e+05
    3.4973710775e-02    1.0187452344e+05
    3.4987010062e-02    1.0187111719e+05
endcurve
