Curveplot
LS-DYNA keyword deck by LS-PrePost                          
Time
Pressure
Defined Connection
Pressure @ 91 #pts=1745
* Minval=     9.9476164062e+04 at time=         0.0176102016
* Maxval=     1.6626406250e+05 at time=         0.0080546662
    0.0000000000e+00    9.9999093750e+04
    3.3812357287e-05    9.9999093750e+04
    6.1326652940e-05    9.9999250000e+04
    8.9102875791e-05    9.9996992188e+04
    1.1682785407e-04    9.9999148438e+04
    1.4461828687e-04    9.9999226562e+04
    1.7236733402e-04    9.9999523438e+04
    2.0016246708e-04    1.0000000000e+05
    2.2795486439e-04    1.0000285156e+05
    2.5574557367e-04    1.0000116406e+05
    2.8353667585e-04    1.0000146875e+05
    3.1133697485e-04    1.0000137500e+05
    3.3912662184e-04    9.9992054688e+04
    3.6691734567e-04    1.0000103125e+05
    3.9470891352e-04    9.9999085938e+04
    4.2249175021e-04    1.0000183594e+05
    4.5027161832e-04    1.0000238281e+05
    4.7804549104e-04    1.0000283594e+05
    5.0581363030e-04    1.0000300781e+05
    5.3357944125e-04    1.0000072656e+05
    5.6134146871e-04    1.0000046094e+05
    5.8909942163e-04    9.9993320312e+04
    6.1685312539e-04    1.0000200781e+05
    6.4460188150e-04    9.9999476562e+04
    6.7234638846e-04    9.9999148438e+04
    7.0008635521e-04    9.9994523438e+04
    7.2782178177e-04    1.0000375781e+05
    7.5555208605e-04    1.0000202344e+05
    7.8327720985e-04    1.0000725000e+05
    8.1099680392e-04    1.0000289844e+05
    8.3871174138e-04    1.0000039844e+05
    8.6642213864e-04    9.9989687500e+04
    8.9412782108e-04    1.0000181250e+05
    9.2182843946e-04    1.0000214844e+05
    9.4952445943e-04    1.0000221875e+05
    9.7721535712e-04    1.0000182031e+05
    1.0049008997e-03    9.9992226562e+04
    1.0325826006e-03    9.9999914062e+04
    1.0602590628e-03    1.0000150781e+05
    1.0879321489e-03    1.0000458594e+05
    1.1155996472e-03    1.0000260156e+05
    1.1432634201e-03    1.0000252344e+05
    1.1709230021e-03    9.9997742188e+04
    1.1985785095e-03    1.0000213281e+05
    1.2262313394e-03    9.9998632812e+04
    1.2538790470e-03    9.9998250000e+04
    1.2815232622e-03    9.9998976562e+04
    1.3091630535e-03    1.0000183594e+05
    1.3368004002e-03    1.0000389844e+05
    1.3644339051e-03    1.0000891406e+05
    1.3920635683e-03    1.0002736719e+05
    1.4196902048e-03    1.0005302344e+05
    1.4473132323e-03    1.0011103906e+05
    1.4749332331e-03    1.0019410156e+05
    1.5025498578e-03    1.0032641406e+05
    1.5301633393e-03    1.0051278906e+05
    1.5577742597e-03    1.0077308594e+05
    1.5853822697e-03    1.0109581250e+05
    1.6129877185e-03    1.0146683594e+05
    1.6405890929e-03    1.0186541406e+05
    1.6681876732e-03    1.0224896875e+05
    1.6957829939e-03    1.0259706250e+05
    1.7233766848e-03    1.0287241406e+05
    1.7509678146e-03    1.0305334375e+05
    1.7785291420e-03    1.0313734375e+05
    1.8060547300e-03    1.0313492969e+05
    1.8335470231e-03    1.0305535156e+05
    1.8610082334e-03    1.0292160156e+05
    1.8884401070e-03    1.0274936719e+05
    1.9158447394e-03    1.0257075000e+05
    1.9432241097e-03    1.0241721094e+05
    1.9705800805e-03    1.0230091406e+05
    1.9979148638e-03    1.0222121094e+05
    2.0252298564e-03    1.0219260156e+05
    2.0525271539e-03    1.0221286719e+05
    2.0798076876e-03    1.0226909375e+05
    2.1070730872e-03    1.0234606250e+05
    2.1343247499e-03    1.0242418750e+05
    2.1615643054e-03    1.0248783594e+05
    2.1887931507e-03    1.0252621094e+05
    2.2160108201e-03    1.0253485156e+05
    2.2432196420e-03    1.0253164844e+05
    2.2704207804e-03    1.0251441406e+05
    2.2976147011e-03    1.0248347656e+05
    2.3248014040e-03    1.0244802344e+05
    2.3519827519e-03    1.0241896094e+05
    2.3791582789e-03    1.0239431250e+05
    2.4063293822e-03    1.0238141406e+05
    2.4334960617e-03    1.0238455469e+05
    2.4606597144e-03    1.0239160156e+05
    2.4878205732e-03    1.0241037500e+05
    2.5149781723e-03    1.0242961719e+05
    2.5421329774e-03    1.0244050000e+05
    2.5692859199e-03    1.0244725000e+05
    2.5964374654e-03    1.0244877344e+05
    2.6235871483e-03    1.0244753906e+05
    2.6507352013e-03    1.0243721094e+05
    2.6778825559e-03    1.0243225781e+05
    2.7050296776e-03    1.0241209375e+05
    2.7321761008e-03    1.0241116406e+05
    2.7593218256e-03    1.0242005469e+05
    2.7864677832e-03    1.0242387500e+05
    2.8136142064e-03    1.0243327344e+05
    2.8407603968e-03    1.0243381250e+05
    2.8679079842e-03    1.0243791406e+05
    2.8950548731e-03    1.0245194531e+05
    2.9222022276e-03    1.0248571875e+05
    2.9493502807e-03    1.0252252344e+05
    2.9764990322e-03    1.0257953906e+05
    3.0036487151e-03    1.0264382031e+05
    3.0307997949e-03    1.0272559375e+05
    3.0579508748e-03    1.0281178906e+05
    3.0851035845e-03    1.0291453125e+05
    3.1122572254e-03    1.0301485156e+05
    3.1394117977e-03    1.0311846875e+05
    3.1665677670e-03    1.0320274219e+05
    3.1937246677e-03    1.0326593750e+05
    3.2208829653e-03    1.0330132031e+05
    3.2480424270e-03    1.0331208594e+05
    3.2752046827e-03    1.0329300781e+05
    3.2952371985e-03    1.0325628906e+05
    3.3145032357e-03    1.0321744531e+05
    3.3336398192e-03    1.0318343750e+05
    3.3528339118e-03    1.0314553125e+05
    3.3720366191e-03    1.0310415625e+05
    3.3912549261e-03    1.0306208594e+05
    3.4104890656e-03    1.0301975781e+05
    3.4297339153e-03    1.0297985156e+05
    3.4486323129e-03    1.0293115625e+05
    3.4671388566e-03    1.0287842969e+05
    3.4854323603e-03    1.0282890625e+05
    3.5036695190e-03    1.0277080469e+05
    3.5219141282e-03    1.0270525781e+05
    3.5401545465e-03    1.0263559375e+05
    3.5583588760e-03    1.0256316406e+05
    3.5765271168e-03    1.0249896094e+05
    3.5946895368e-03    1.0242996094e+05
    3.6139658187e-03    1.0237336719e+05
    3.6330535077e-03    1.0232059375e+05
    3.6521453876e-03    1.0228019531e+05
    3.6699753255e-03    1.0225111719e+05
    3.6875614896e-03    1.0222946875e+05
    3.7050142419e-03    1.0221046094e+05
    3.7224807311e-03    1.0219840625e+05
    3.7400643341e-03    1.0217811719e+05
    3.7577797193e-03    1.0216660156e+05
    3.7755726371e-03    1.0215578125e+05
    3.7933769636e-03    1.0214316406e+05
    3.8111612666e-03    1.0213685156e+05
    3.8289318327e-03    1.0212638281e+05
    3.8467168342e-03    1.0212434375e+05
    3.8645383902e-03    1.0211689844e+05
    3.8824023213e-03    1.0211515625e+05
    3.9002960548e-03    1.0210058594e+05
    3.9182156324e-03    1.0209103125e+05
    3.9361710660e-03    1.0207469531e+05
    3.9541716687e-03    1.0205821875e+05
    3.9733103476e-03    1.0204152344e+05
    3.9924201556e-03    1.0201532031e+05
    4.0104058571e-03    1.0199816406e+05
    4.0284004062e-03    1.0199066406e+05
    4.0464363992e-03    1.0197922656e+05
    4.0656095371e-03    1.0196664844e+05
    4.0847789496e-03    1.0196909375e+05
    4.1039343923e-03    1.0196134375e+05
    4.1219722480e-03    1.0195887500e+05
    4.1400394402e-03    1.0194978125e+05
    4.1591953486e-03    1.0194539844e+05
    4.1784178466e-03    1.0193403906e+05
    4.1976389475e-03    1.0192265625e+05
    4.2168586515e-03    1.0191127344e+05
    4.2360713705e-03    1.0190016406e+05
    4.2552771047e-03    1.0189622656e+05
    4.2744791135e-03    1.0189034375e+05
    4.2936825193e-03    1.0188663281e+05
    4.3128933758e-03    1.0187309375e+05
    4.3321144767e-03    1.0185380469e+05
    4.3513495475e-03    1.0183960156e+05
    4.3705995195e-03    1.0181414844e+05
    4.3898657896e-03    1.0179546875e+05
    4.4091497548e-03    1.0177675000e+05
    4.4284537435e-03    1.0175053906e+05
    4.4477786869e-03    1.0171821094e+05
    4.4671236537e-03    1.0167669531e+05
    4.4864914380e-03    1.0162952344e+05
    4.5058806427e-03    1.0156628906e+05
    4.5252908021e-03    1.0148632031e+05
    4.5447219163e-03    1.0140528906e+05
    4.5641721226e-03    1.0131078906e+05
    4.5836409554e-03    1.0121107031e+05
    4.6031279489e-03    1.0110792969e+05
    4.6226321720e-03    1.0099427344e+05
    4.6421540901e-03    1.0086685156e+05
    4.6616927721e-03    1.0074339844e+05
    4.6812482178e-03    1.0061486719e+05
    4.7008208930e-03    1.0049728906e+05
    4.7204112634e-03    1.0039310156e+05
    4.7400193289e-03    1.0030028906e+05
    4.7596455552e-03    1.0023014844e+05
    4.7792894766e-03    1.0018022656e+05
    4.7989510931e-03    1.0014764844e+05
    4.8186304048e-03    1.0014646094e+05
    4.8383255489e-03    1.0015403125e+05
    4.8580355942e-03    1.0018766406e+05
    4.8777610064e-03    1.0023253906e+05
    4.8975008540e-03    1.0028596875e+05
    4.9172551371e-03    1.0035163281e+05
    4.9370229244e-03    1.0041478125e+05
    4.9568060786e-03    1.0047883594e+05
    4.9766036682e-03    1.0053221094e+05
    4.9964170903e-03    1.0057972656e+05
    5.0162458792e-03    1.0061546875e+05
    5.0360900350e-03    1.0064267969e+05
    5.0559476949e-03    1.0066202344e+05
    5.0758207217e-03    1.0067459375e+05
    5.0957072526e-03    1.0067480469e+05
    5.1156077534e-03    1.0067557031e+05
    5.1355226897e-03    1.0066360156e+05
    5.1554525271e-03    1.0065361719e+05
    5.1753963344e-03    1.0063292969e+05
    5.1953555085e-03    1.0061574219e+05
    5.2153295837e-03    1.0059865625e+05
    5.2353194915e-03    1.0058485156e+05
    5.2553247660e-03    1.0057728125e+05
    5.2753463387e-03    1.0057422656e+05
    5.2953832783e-03    1.0057788281e+05
    5.3154369816e-03    1.0057900781e+05
    5.3355065174e-03    1.0058138281e+05
    5.3555918857e-03    1.0058971875e+05
    5.3756926209e-03    1.0059918750e+05
    5.3958082572e-03    1.0060960156e+05
    5.4159392603e-03    1.0062303906e+05
    5.4360851645e-03    1.0063458594e+05
    5.4562464356e-03    1.0064597656e+05
    5.4764230736e-03    1.0065675781e+05
    5.4966160096e-03    1.0066432031e+05
    5.5168238468e-03    1.0067078125e+05
    5.5370470509e-03    1.0066952344e+05
    5.5572865531e-03    1.0067202344e+05
    5.5775423534e-03    1.0066944531e+05
    5.5978130549e-03    1.0066878906e+05
    5.6181000546e-03    1.0067263281e+05
    5.6384028867e-03    1.0067214844e+05
    5.6587206200e-03    1.0067883594e+05
    5.6790532544e-03    1.0068128906e+05
    5.6994007900e-03    1.0067950781e+05
    5.7197632268e-03    1.0068235156e+05
    5.7401410304e-03    1.0068321094e+05
    5.7605337352e-03    1.0068908594e+05
    5.7809422724e-03    1.0069280469e+05
    5.8013652451e-03    1.0069653906e+05
    5.8218040504e-03    1.0070021875e+05
    5.8422577567e-03    1.0070392969e+05
    5.8627268299e-03    1.0070799219e+05
    5.8832112700e-03    1.0072136719e+05
    5.9037101455e-03    1.0072436719e+05
    5.9242248535e-03    1.0072699219e+05
    5.9447535314e-03    1.0072374219e+05
    5.9641525149e-03    1.0073655469e+05
    5.9830932878e-03    1.0074060156e+05
    6.0020405799e-03    1.0074497656e+05
    6.0210367665e-03    1.0075869531e+05
    6.0400799848e-03    1.0076115625e+05
    6.0591096990e-03    1.0076138281e+05
    6.0781282373e-03    1.0076835156e+05
    6.0972142965e-03    1.0077763281e+05
    6.1162756756e-03    1.0078271094e+05
    6.1353649944e-03    1.0078800781e+05
    6.1544459313e-03    1.0080266406e+05
    6.1734300107e-03    1.0080857031e+05
    6.1924448237e-03    1.0081446875e+05
    6.2115197070e-03    1.0082739844e+05
    6.2306127511e-03    1.0083602344e+05
    6.2497169711e-03    1.0084253906e+05
    6.2688281760e-03    1.0085377344e+05
    6.2879407778e-03    1.0086530469e+05
    6.3070552424e-03    1.0087959375e+05
    6.3261794858e-03    1.0088766406e+05
    6.3453060575e-03    1.0090787500e+05
    6.3644465990e-03    1.0092446875e+05
    6.3835908659e-03    1.0093514844e+05
    6.4027444459e-03    1.0095814844e+05
    6.4219115302e-03    1.0097983594e+05
    6.4410855994e-03    1.0100250000e+05
    6.4602680504e-03    1.0102589844e+05
    6.4794607460e-03    1.0104014844e+05
    6.4986641519e-03    1.0104710156e+05
    6.5178787336e-03    1.0105780469e+05
    6.5371058881e-03    1.0106064844e+05
    6.5563363023e-03    1.0106246875e+05
    6.5755699761e-03    1.0106337500e+05
    6.5948092379e-03    1.0107271094e+05
    6.6140629351e-03    1.0107214844e+05
    6.6333152354e-03    1.0107071875e+05
    6.6525745206e-03    1.0107292969e+05
    6.6718445159e-03    1.0106971875e+05
    6.6911154427e-03    1.0107041406e+05
    6.7104012705e-03    1.0106594531e+05
    6.7296870984e-03    1.0107008594e+05
    6.7489854991e-03    1.0107362500e+05
    6.7682852969e-03    1.0107211719e+05
    6.7875892855e-03    1.0107007031e+05
    6.8069072440e-03    1.0106303906e+05
    6.8262196146e-03    1.0106471094e+05
    6.8455408327e-03    1.0106609375e+05
    6.8648783490e-03    1.0106263281e+05
    6.8842126057e-03    1.0105893750e+05
    6.9035501219e-03    1.0105742969e+05
    6.9228983484e-03    1.0105924219e+05
    6.9422605447e-03    1.0106328125e+05
    6.9616222754e-03    1.0106153906e+05
    6.9809844717e-03    1.0105721875e+05
    7.0003494620e-03    1.0105266406e+05
    7.0197195746e-03    1.0105249219e+05
    7.0390999317e-03    1.0105227344e+05
    7.0584909990e-03    1.0105191406e+05
    7.0778946392e-03    1.0105146094e+05
    7.0973108523e-03    1.0104864844e+05
    7.1167377755e-03    1.0104797656e+05
    7.1361698210e-03    1.0104272656e+05
    7.1556069888e-03    1.0104927344e+05
    7.1750483476e-03    1.0104824219e+05
    7.1944966912e-03    1.0105432031e+05
    7.2139529511e-03    1.0105946875e+05
    7.2334166616e-03    1.0106011719e+05
    7.2528840974e-03    1.0106052344e+05
    7.2723543271e-03    1.0105378906e+05
    7.2918278165e-03    1.0104797656e+05
    7.3113050312e-03    1.0105592969e+05
    7.3307845742e-03    1.0106115625e+05
    7.3502692394e-03    1.0106477344e+05
    7.3697618209e-03    1.0107353125e+05
    7.3892641813e-03    1.0107138281e+05
    7.4087800458e-03    1.0106869531e+05
    7.4282912537e-03    1.0107356250e+05
    7.4477996677e-03    1.0107865625e+05
    7.4673094787e-03    1.0109256250e+05
    7.4868267402e-03    1.0111140625e+05
    7.5063589029e-03    1.0113100781e+05
    7.5258887373e-03    1.0115641406e+05
    7.5454111211e-03    1.0118602344e+05
    7.5649353676e-03    1.0122241406e+05
    7.5844703242e-03    1.0126158594e+05
    7.6040057465e-03    1.0131060156e+05
    7.6235276647e-03    1.0136285156e+05
    7.6430505142e-03    1.0142762500e+05
    7.6625877991e-03    1.0150150000e+05
    7.6821087860e-03    1.0158302344e+05
    7.7016241848e-03    1.0167289844e+05
    7.7211544849e-03    1.0177185156e+05
    7.7406810597e-03    1.0187969531e+05
    7.7602043748e-03    1.0200846094e+05
    7.7797495760e-03    1.0217193750e+05
    7.7992938459e-03    1.0241991406e+05
    7.8188432381e-03    1.0281491406e+05
    7.8384252265e-03    1.0351333594e+05
    7.8580006957e-03    1.0475921875e+05
    7.8775910661e-03    1.0695271875e+05
    7.8972103074e-03    1.1061822656e+05
    7.9168286175e-03    1.1627439844e+05
    7.9364804551e-03    1.2416416406e+05
    7.9561360180e-03    1.3393629688e+05
    7.9758102074e-03    1.4442818750e+05
    7.9955114052e-03    1.5399729688e+05
    8.0152126029e-03    1.6114510938e+05
    8.0349491909e-03    1.6516735938e+05
    8.0546662211e-03    1.6626406250e+05
    8.0743944272e-03    1.6529362500e+05
    8.0941170454e-03    1.6323626562e+05
    8.1138620153e-03    1.6095653125e+05
    8.1336386502e-03    1.5899032812e+05
    8.1534720957e-03    1.5747500000e+05
    8.1733558327e-03    1.5631820312e+05
    8.1932730973e-03    1.5530107812e+05
    8.2132071257e-03    1.5421664062e+05
    8.2330890000e-03    1.5291092188e+05
    8.2529615611e-03    1.5134782812e+05
    8.2727763802e-03    1.4958876562e+05
    8.2926023751e-03    1.4773642188e+05
    8.3124246448e-03    1.4589615625e+05
    8.3322748542e-03    1.4415487500e+05
    8.3521194756e-03    1.4255175000e+05
    8.3719678223e-03    1.4109245312e+05
    8.3917891607e-03    1.3975456250e+05
    8.4116021171e-03    1.3850701562e+05
    8.4314141423e-03    1.3731814062e+05
    8.4512168542e-03    1.3616518750e+05
    8.4710381925e-03    1.3503707812e+05
    8.4908353165e-03    1.3393415625e+05
    8.5106678307e-03    1.3287171875e+05
    8.5304882377e-03    1.3186551562e+05
    8.5503393784e-03    1.3092459375e+05
    8.5699046031e-03    1.3005903906e+05
    8.5892248899e-03    1.2927131250e+05
    8.6083402857e-03    1.2854662500e+05
    8.6272666231e-03    1.2788135156e+05
    8.6460309103e-03    1.2725469531e+05
    8.6646731943e-03    1.2665222656e+05
    8.6832325906e-03    1.2606642969e+05
    8.7017398328e-03    1.2548631250e+05
    8.7202098221e-03    1.2491752344e+05
    8.7386453524e-03    1.2435784375e+05
    8.7570473552e-03    1.2381302344e+05
    8.7753897533e-03    1.2327034375e+05
    8.7936492637e-03    1.2274771094e+05
    8.8118780404e-03    1.2223646094e+05
    8.8300397620e-03    1.2173800000e+05
    8.8481390849e-03    1.2125259375e+05
    8.8662039489e-03    1.2077408594e+05
    8.8842641562e-03    1.2030772656e+05
    8.9023411274e-03    1.1985278906e+05
    8.9204348624e-03    1.1941231250e+05
    8.9385388419e-03    1.1898149219e+05
    8.9566456154e-03    1.1857403906e+05
    8.9747514576e-03    1.1818466406e+05
    8.9928600937e-03    1.1782321875e+05
    9.0109808370e-03    1.1748378906e+05
    9.0291155502e-03    1.1716383594e+05
    9.0472688898e-03    1.1687018750e+05
    9.0654399246e-03    1.1659803906e+05
    9.0836230665e-03    1.1633828125e+05
    9.1018192470e-03    1.1609703906e+05
    9.1200266033e-03    1.1587777344e+05
    9.1382460669e-03    1.1567178906e+05
    9.1564757749e-03    1.1548239844e+05
    9.1747231781e-03    1.1530199219e+05
    9.1929892078e-03    1.1514382031e+05
    9.2112747952e-03    1.1499724219e+05
    9.2295790091e-03    1.1486393750e+05
    9.2479009181e-03    1.1474337500e+05
    9.2662386596e-03    1.1463759375e+05
    9.2845931649e-03    1.1454703125e+05
    9.3029672280e-03    1.1446596094e+05
    9.3213599175e-03    1.1439002344e+05
    9.3397712335e-03    1.1433228906e+05
    9.3582011759e-03    1.1427615625e+05
    9.3766497448e-03    1.1422533594e+05
    9.3951150775e-03    1.1416646094e+05
    9.4135999680e-03    1.1411113281e+05
    9.4321016222e-03    1.1405307031e+05
    9.4506228343e-03    1.1399646094e+05
    9.4691645354e-03    1.1393393750e+05
    9.4877239317e-03    1.1386457031e+05
    9.5063010231e-03    1.1378903906e+05
    9.5248948783e-03    1.1371060156e+05
    9.5435054973e-03    1.1362550781e+05
    9.5621328801e-03    1.1353934375e+05
    9.5807760954e-03    1.1345083594e+05
    9.5994332805e-03    1.1335630469e+05
    9.6181081608e-03    1.1326186719e+05
    9.6367979422e-03    1.1316427344e+05
    9.6555035561e-03    1.1305603906e+05
    9.6742231399e-03    1.1295392969e+05
    9.6929576248e-03    1.1284571094e+05
    9.7117051482e-03    1.1274010156e+05
    9.7304685041e-03    1.1263187500e+05
    9.7492448986e-03    1.1252919531e+05
    9.7680361941e-03    1.1243066406e+05
    9.7868405282e-03    1.1233033594e+05
    9.8056588322e-03    1.1223510156e+05
    9.8244920373e-03    1.1214428906e+05
    9.8433364183e-03    1.1206060156e+05
    9.8621929064e-03    1.1198163281e+05
    9.8810633644e-03    1.1191381250e+05
    9.8999459296e-03    1.1185632031e+05
    9.9188406020e-03    1.1180641406e+05
    9.9377483130e-03    1.1176933594e+05
    9.9566690624e-03    1.1173242969e+05
    9.9756028503e-03    1.1170631250e+05
    9.9945487455e-03    1.1168084375e+05
    1.0013507679e-02    1.1165746094e+05
    1.0032479651e-02    1.1162983594e+05
    1.0051463731e-02    1.1160928906e+05
    1.0070459917e-02    1.1157919531e+05
    1.0089469142e-02    1.1154403906e+05
    1.0108492337e-02    1.1150550000e+05
    1.0127528571e-02    1.1146222656e+05
    1.0146577843e-02    1.1140235156e+05
    1.0165639222e-02    1.1133833594e+05
    1.0184712708e-02    1.1126483594e+05
    1.0203798302e-02    1.1118205469e+05
    1.0222896002e-02    1.1109694531e+05
    1.0242006741e-02    1.1100566406e+05
    1.0261129588e-02    1.1091752344e+05
    1.0280264542e-02    1.1082193750e+05
    1.0299413465e-02    1.1073464844e+05
    1.0318575427e-02    1.1065193750e+05
    1.0337748565e-02    1.1056974219e+05
    1.0356934741e-02    1.1050038281e+05
    1.0376133956e-02    1.1043815625e+05
    1.0395346209e-02    1.1037657031e+05
    1.0414571501e-02    1.1032859375e+05
    1.0433809832e-02    1.1028277344e+05
    1.0453061201e-02    1.1023660156e+05
    1.0472324677e-02    1.1019947656e+05
    1.0491601191e-02    1.1016096094e+05
    1.0510892607e-02    1.1011944531e+05
    1.0530196130e-02    1.1007700781e+05
    1.0549513623e-02    1.1003509375e+05
    1.0568842292e-02    1.0999366406e+05
    1.0588183999e-02    1.0994107031e+05
    1.0607538745e-02    1.0989684375e+05
    1.0626907460e-02    1.0984671875e+05
    1.0646289214e-02    1.0979282031e+05
    1.0665684007e-02    1.0974128906e+05
    1.0685092770e-02    1.0968546094e+05
    1.0704516433e-02    1.0963647656e+05
    1.0723951273e-02    1.0959030469e+05
    1.0743400082e-02    1.0955588281e+05
    1.0762862861e-02    1.0951647656e+05
    1.0782338679e-02    1.0948562500e+05
    1.0801829398e-02    1.0945071094e+05
    1.0821334086e-02    1.0941372656e+05
    1.0840852745e-02    1.0938164844e+05
    1.0860386305e-02    1.0934653906e+05
    1.0879932903e-02    1.0931281250e+05
    1.0899493471e-02    1.0927869531e+05
    1.0919069871e-02    1.0923700000e+05
    1.0938662104e-02    1.0919364844e+05
    1.0958270170e-02    1.0914088281e+05
    1.0977892205e-02    1.0907978906e+05
    1.0997531936e-02    1.0901655469e+05
    1.1017187499e-02    1.0894658594e+05
    1.1036860757e-02    1.0887921094e+05
    1.1056551710e-02    1.0880189844e+05
    1.1076259427e-02    1.0872958594e+05
    1.1095987633e-02    1.0865719531e+05
    1.1115733534e-02    1.0858068750e+05
    1.1135498993e-02    1.0850456250e+05
    1.1155283079e-02    1.0843150000e+05
    1.1175086722e-02    1.0836008594e+05
    1.1194912717e-02    1.0828243750e+05
    1.1214758269e-02    1.0820657031e+05
    1.1234625243e-02    1.0813292969e+05
    1.1254511774e-02    1.0806033594e+05
    1.1274418794e-02    1.0798522656e+05
    1.1294347234e-02    1.0791275000e+05
    1.1314296164e-02    1.0783600000e+05
    1.1334266514e-02    1.0776002344e+05
    1.1354257353e-02    1.0768471875e+05
    1.1374268681e-02    1.0760543750e+05
    1.1394302361e-02    1.0753478906e+05
    1.1414355598e-02    1.0745532031e+05
    1.1434430256e-02    1.0737506250e+05
    1.1454525404e-02    1.0729653906e+05
    1.1474640109e-02    1.0722141406e+05
    1.1494777165e-02    1.0714178906e+05
    1.1514934711e-02    1.0706341406e+05
    1.1535113677e-02    1.0698918750e+05
    1.1555313133e-02    1.0690533594e+05
    1.1575534008e-02    1.0684049219e+05
    1.1595774442e-02    1.0676705469e+05
    1.1616035365e-02    1.0670610156e+05
    1.1636316776e-02    1.0664322656e+05
    1.1656619608e-02    1.0657952344e+05
    1.1676942930e-02    1.0651728125e+05
    1.1697287671e-02    1.0645866406e+05
    1.1717652902e-02    1.0639139844e+05
    1.1738038622e-02    1.0632703906e+05
    1.1758443899e-02    1.0626734375e+05
    1.1778870597e-02    1.0620428906e+05
    1.1799318716e-02    1.0614459375e+05
    1.1819788255e-02    1.0608768750e+05
    1.1840280145e-02    1.0603178906e+05
    1.1860790662e-02    1.0598143750e+05
    1.1881321669e-02    1.0593141406e+05
    1.1901874095e-02    1.0588421875e+05
    1.1922447011e-02    1.0583972656e+05
    1.1943042278e-02    1.0579008594e+05
    1.1963658035e-02    1.0574003906e+05
    1.1984295212e-02    1.0568925781e+05
    1.2004952878e-02    1.0563552344e+05
    1.2025631964e-02    1.0558546094e+05
    1.2046331540e-02    1.0553436719e+05
    1.2067052536e-02    1.0547232031e+05
    1.2087795883e-02    1.0539993750e+05
    1.2108558789e-02    1.0533314844e+05
    1.2129344046e-02    1.0525608594e+05
    1.2150149792e-02    1.0516494531e+05
    1.2170976959e-02    1.0507964844e+05
    1.2191825546e-02    1.0498783594e+05
    1.2212695554e-02    1.0489383594e+05
    1.2233586982e-02    1.0479641406e+05
    1.2254500762e-02    1.0470566406e+05
    1.2275436893e-02    1.0462608594e+05
    1.2296394445e-02    1.0455749219e+05
    1.2317374349e-02    1.0449853125e+05
    1.2338375673e-02    1.0444928125e+05
    1.2359398417e-02    1.0441500000e+05
    1.2380442582e-02    1.0438722656e+05
    1.2401508167e-02    1.0437281250e+05
    1.2422595173e-02    1.0435488281e+05
    1.2443703599e-02    1.0434691406e+05
    1.2464834377e-02    1.0434093750e+05
    1.2485986575e-02    1.0433263281e+05
    1.2507158332e-02    1.0431550000e+05
    1.2528351508e-02    1.0429135156e+05
    1.2549565174e-02    1.0425611719e+05
    1.2570801191e-02    1.0421431250e+05
    1.2592058629e-02    1.0416225781e+05
    1.2613337487e-02    1.0411350000e+05
    1.2634636834e-02    1.0405975000e+05
    1.2655957602e-02    1.0401014844e+05
    1.2677297927e-02    1.0396231250e+05
    1.2698660605e-02    1.0392519531e+05
    1.2720043771e-02    1.0389035156e+05
    1.2741449289e-02    1.0387414844e+05
    1.2762876227e-02    1.0385644531e+05
    1.2784325518e-02    1.0384057031e+05
    1.2805794366e-02    1.0382425000e+05
    1.2827285565e-02    1.0380927344e+05
    1.2848797254e-02    1.0378303125e+05
    1.2870330364e-02    1.0375538281e+05
    1.2891885825e-02    1.0371178906e+05
    1.2913462706e-02    1.0366640625e+05
    1.2935061008e-02    1.0363083594e+05
    1.2956679799e-02    1.0359314844e+05
    1.2978320010e-02    1.0355800000e+05
    1.2999981642e-02    1.0352599219e+05
    1.3021663763e-02    1.0349864844e+05
    1.3043368235e-02    1.0346681250e+05
    1.3065092266e-02    1.0343392969e+05
    1.3086837716e-02    1.0339728906e+05
    1.3108605519e-02    1.0337233594e+05
    1.3130392879e-02    1.0334421094e+05
    1.3152201660e-02    1.0331644531e+05
    1.3174032792e-02    1.0328925781e+05
    1.3195885345e-02    1.0326399219e+05
    1.3217759319e-02    1.0324175781e+05
    1.3239653781e-02    1.0322222656e+05
    1.3261569664e-02    1.0321231250e+05
    1.3283506967e-02    1.0320458594e+05
    1.3305463828e-02    1.0321430469e+05
    1.3327440247e-02    1.0325143750e+05
    1.3349435292e-02    1.0332022656e+05
    1.3371448033e-02    1.0343025781e+05
    1.3393475674e-02    1.0361024219e+05
    1.3415516354e-02    1.0387309375e+05
    1.3437564485e-02    1.0423100000e+05
    1.3459613547e-02    1.0471327344e+05
    1.3481658883e-02    1.0532952344e+05
    1.3503690250e-02    1.0607919531e+05
    1.3525702059e-02    1.0695055469e+05
    1.3547683135e-02    1.0790859375e+05
    1.3569628820e-02    1.0891062500e+05
    1.3591531664e-02    1.0987828906e+05
    1.3613392599e-02    1.1075146094e+05
    1.3635210693e-02    1.1146050781e+05
    1.3656994328e-02    1.1195197656e+05
    1.3678749092e-02    1.1219937500e+05
    1.3700488023e-02    1.1220907031e+05
    1.3722228818e-02    1.1199637500e+05
    1.3743981719e-02    1.1159510156e+05
    1.3765762560e-02    1.1103797656e+05
    1.3787578791e-02    1.1037964844e+05
    1.3809437864e-02    1.0966211719e+05
    1.3831341639e-02    1.0895110156e+05
    1.3853288256e-02    1.0828439844e+05
    1.3875273056e-02    1.0770318750e+05
    1.3897285797e-02    1.0722539844e+05
    1.3919321820e-02    1.0685046875e+05
    1.3941374607e-02    1.0655422656e+05
    1.3963440433e-02    1.0630972656e+05
    1.3985517435e-02    1.0607085156e+05
    1.4007603750e-02    1.0581221094e+05
    1.4029704034e-02    1.0550489844e+05
    1.4051820152e-02    1.0514700781e+05
    1.4073957689e-02    1.0473000000e+05
    1.4096121304e-02    1.0426537500e+05
    1.4118315652e-02    1.0377019531e+05
    1.4140545391e-02    1.0326564844e+05
    1.4162814245e-02    1.0278402344e+05
    1.4185124077e-02    1.0234656250e+05
    1.4207473956e-02    1.0197103906e+05
    1.4229862019e-02    1.0166385156e+05
    1.4252286404e-02    1.0142856250e+05
    1.4274741523e-02    1.0126322656e+05
    1.4297228307e-02    1.0115872656e+05
    1.4319745824e-02    1.0110971094e+05
    1.4342290349e-02    1.0110739844e+05
    1.4364863746e-02    1.0113169531e+05
    1.4387467876e-02    1.0117030469e+05
    1.4410103671e-02    1.0120867969e+05
    1.4432771131e-02    1.0124462500e+05
    1.4455472119e-02    1.0126915625e+05
    1.4478209428e-02    1.0128506250e+05
    1.4500979334e-02    1.0129161719e+05
    1.4523783699e-02    1.0128003125e+05
    1.4546621591e-02    1.0125464844e+05
    1.4569494873e-02    1.0122591406e+05
    1.4592399821e-02    1.0119267969e+05
    1.4615339227e-02    1.0115838281e+05
    1.4638305642e-02    1.0113196875e+05
    1.4661304653e-02    1.0111196875e+05
    1.4684336260e-02    1.0109883594e+05
    1.4707398601e-02    1.0109491406e+05
    1.4730494469e-02    1.0109452344e+05
    1.4753622934e-02    1.0111167969e+05
    1.4776783995e-02    1.0113635156e+05
    1.4799979515e-02    1.0118421094e+05
    1.4823205769e-02    1.0123984375e+05
    1.4846466482e-02    1.0130572656e+05
    1.4869757928e-02    1.0138775781e+05
    1.4893081971e-02    1.0145771875e+05
    1.4916437678e-02    1.0152847656e+05
    1.4939822257e-02    1.0158824219e+05
    1.4963239431e-02    1.0163138281e+05
    1.4986685477e-02    1.0166075000e+05
    1.5010161325e-02    1.0167407031e+05
    1.5033668838e-02    1.0167378125e+05
    1.5057205223e-02    1.0166822656e+05
    1.5080772340e-02    1.0166171094e+05
    1.5104367398e-02    1.0165925000e+05
    1.5127992257e-02    1.0167175781e+05
    1.5151646920e-02    1.0169880469e+05
    1.5175330453e-02    1.0172660156e+05
    1.5199041925e-02    1.0176690625e+05
    1.5222782269e-02    1.0180778906e+05
    1.5246548690e-02    1.0184372656e+05
    1.5270343982e-02    1.0187290625e+05
    1.5294168144e-02    1.0189065625e+05
    1.5318016522e-02    1.0190344531e+05
    1.5341891907e-02    1.0190596094e+05
    1.5365792438e-02    1.0189794531e+05
    1.5389721841e-02    1.0189119531e+05
    1.5413676389e-02    1.0188153906e+05
    1.5437657945e-02    1.0187788281e+05
    1.5461664647e-02    1.0187991406e+05
    1.5485695563e-02    1.0188617969e+05
    1.5509752557e-02    1.0188894531e+05
    1.5533835627e-02    1.0189964844e+05
    1.5557944775e-02    1.0191121094e+05
    1.5582079068e-02    1.0191636719e+05
    1.5606240369e-02    1.0192410156e+05
    1.5630424023e-02    1.0192917969e+05
    1.5654634684e-02    1.0193618750e+05
    1.5678871423e-02    1.0194107031e+05
    1.5703132376e-02    1.0194319531e+05
    1.5727419406e-02    1.0194296094e+05
    1.5751728788e-02    1.0193888281e+05
    1.5776060522e-02    1.0192815625e+05
    1.5800418332e-02    1.0190938281e+05
    1.5824800357e-02    1.0188508594e+05
    1.5849204734e-02    1.0185728125e+05
    1.5873633325e-02    1.0180980469e+05
    1.5898084268e-02    1.0176586719e+05
    1.5922557563e-02    1.0171649219e+05
    1.5947058797e-02    1.0165975000e+05
    1.5971582383e-02    1.0160144531e+05
    1.5996130183e-02    1.0153818750e+05
    1.6020702198e-02    1.0147447656e+05
    1.6045298427e-02    1.0141093750e+05
    1.6069920734e-02    1.0133933594e+05
    1.6094569117e-02    1.0126541406e+05
    1.6119243577e-02    1.0119064844e+05
    1.6143942252e-02    1.0111235156e+05
    1.6168667004e-02    1.0103514844e+05
    1.6193419695e-02    1.0096677344e+05
    1.6218200326e-02    1.0090596875e+05
    1.6243007034e-02    1.0083960156e+05
    1.6267839819e-02    1.0078443750e+05
    1.6292702407e-02    1.0073942969e+05
    1.6317596659e-02    1.0070372656e+05
    1.6342513263e-02    1.0068296094e+05
    1.6367461532e-02    1.0067138281e+05
    1.6392435879e-02    1.0067397656e+05
    1.6417443752e-02    1.0068202344e+05
    1.6442479566e-02    1.0070232031e+05
    1.6467543319e-02    1.0072071094e+05
    1.6492636874e-02    1.0073839844e+05
    1.6517756507e-02    1.0075278906e+05
    1.6542907804e-02    1.0077394531e+05
    1.6568088904e-02    1.0079825781e+05
    1.6593271866e-02    1.0081966406e+05
    1.6618426889e-02    1.0083543750e+05
    1.6643559560e-02    1.0085106250e+05
    1.6668669879e-02    1.0087115625e+05
    1.6693757847e-02    1.0088641406e+05
    1.6718825325e-02    1.0089617969e+05
    1.6743874177e-02    1.0090900000e+05
    1.6768900678e-02    1.0091202344e+05
    1.6793908551e-02    1.0091515625e+05
    1.6818899661e-02    1.0091582031e+05
    1.6843874007e-02    1.0091196094e+05
    1.6868829727e-02    1.0089934375e+05
    1.6893770546e-02    1.0087252344e+05
    1.6918692738e-02    1.0083799219e+05
    1.6943598166e-02    1.0079644531e+05
    1.6968490556e-02    1.0074639844e+05
    1.6993366182e-02    1.0068757031e+05
    1.7018226907e-02    1.0062400781e+05
    1.7043072730e-02    1.0056314844e+05
    1.7067901790e-02    1.0049621094e+05
    1.7092714086e-02    1.0042702344e+05
    1.7117511481e-02    1.0035546094e+05
    1.7142292112e-02    1.0027902344e+05
    1.7167057842e-02    1.0021108594e+05
    1.7191808671e-02    1.0014566406e+05
    1.7216544598e-02    1.0008671094e+05
    1.7241263762e-02    1.0002668750e+05
    1.7265968025e-02    9.9963445312e+04
    1.7290659249e-02    9.9898093750e+04
    1.7315333709e-02    9.9847273438e+04
    1.7339993268e-02    9.9796773438e+04
    1.7364639789e-02    9.9747875000e+04
    1.7389267683e-02    9.9706398438e+04
    1.7413880676e-02    9.9654039062e+04
    1.7438478768e-02    9.9614562500e+04
    1.7463061959e-02    9.9571492188e+04
    1.7487626523e-02    9.9543625000e+04
    1.7512176186e-02    9.9525164062e+04
    1.7536709085e-02    9.9508601562e+04
    1.7561223358e-02    9.9492304688e+04
    1.7585720867e-02    9.9481835938e+04
    1.7610201612e-02    9.9476164062e+04
    1.7634663731e-02    9.9482468750e+04
    1.7659107223e-02    9.9493773438e+04
    1.7683532089e-02    9.9519960938e+04
    1.7707940191e-02    9.9545726562e+04
    1.7732329667e-02    9.9582085938e+04
    1.7756698653e-02    9.9624617188e+04
    1.7781050876e-02    9.9668781250e+04
    1.7805384472e-02    9.9716648438e+04
    1.7829699442e-02    9.9772476562e+04
    1.7853999510e-02    9.9824585938e+04
    1.7878280953e-02    9.9871367188e+04
    1.7902545631e-02    9.9916914062e+04
    1.7926793545e-02    9.9960210938e+04
    1.7951028422e-02    1.0000488281e+05
    1.7975246534e-02    1.0005350781e+05
    1.7999447882e-02    1.0008488281e+05
    1.8023636192e-02    1.0011250781e+05
    1.8047811463e-02    1.0013262500e+05
    1.8071975559e-02    1.0015200000e+05
    1.8096126616e-02    1.0016833594e+05
    1.8120266497e-02    1.0018396094e+05
    1.8144397065e-02    1.0020490625e+05
    1.8168520182e-02    1.0022221875e+05
    1.8192630261e-02    1.0024850781e+05
    1.8216732889e-02    1.0027318750e+05
    1.8240824342e-02    1.0030891406e+05
    1.8264908344e-02    1.0034128125e+05
    1.8288983032e-02    1.0037496094e+05
    1.8313048407e-02    1.0041933594e+05
    1.8337102607e-02    1.0046481250e+05
    1.8361147493e-02    1.0051481250e+05
    1.8385183066e-02    1.0056619531e+05
    1.8409207463e-02    1.0061553906e+05
    1.8433224410e-02    1.0066984375e+05
    1.8457230181e-02    1.0072296875e+05
    1.8481226638e-02    1.0076908594e+05
    1.8505210057e-02    1.0081494531e+05
    1.8529184163e-02    1.0086663281e+05
    1.8553148955e-02    1.0092450000e+05
    1.8577100709e-02    1.0098884375e+05
    1.8601041287e-02    1.0104912500e+05
    1.8624972552e-02    1.0111865625e+05
    1.8648892641e-02    1.0118274219e+05
    1.8672801554e-02    1.0124628125e+05
    1.8696699291e-02    1.0131221094e+05
    1.8720587716e-02    1.0137846094e+05
    1.8744463101e-02    1.0143539844e+05
    1.8768329173e-02    1.0148808594e+05
    1.8792184070e-02    1.0154136719e+05
    1.8816027790e-02    1.0158422656e+05
    1.8839860335e-02    1.0161383594e+05
    1.8863683566e-02    1.0164489844e+05
    1.8887493759e-02    1.0166390625e+05
    1.8911294639e-02    1.0168055469e+05
    1.8935086206e-02    1.0170058594e+05
    1.8958866596e-02    1.0171772656e+05
    1.8982635811e-02    1.0173135156e+05
    1.9006397575e-02    1.0174321094e+05
    1.9030146301e-02    1.0176350000e+05
    1.9053885713e-02    1.0179325000e+05
    1.9077615812e-02    1.0183833594e+05
    1.9101334736e-02    1.0188346094e+05
    1.9125042483e-02    1.0194727344e+05
    1.9148740917e-02    1.0200946875e+05
    1.9172428176e-02    1.0208314844e+05
    1.9196104258e-02    1.0217491406e+05
    1.9219771028e-02    1.0226896875e+05
    1.9243424758e-02    1.0237692969e+05
    1.9267069176e-02    1.0248852344e+05
    1.9290700555e-02    1.0259493750e+05
    1.9314322621e-02    1.0270278906e+05
    1.9337931648e-02    1.0280425000e+05
    1.9361529499e-02    1.0289939844e+05
    1.9385114312e-02    1.0298307031e+05
    1.9408687949e-02    1.0304535156e+05
    1.9432250410e-02    1.0308333594e+05
    1.9455801696e-02    1.0310202344e+05
    1.9479339942e-02    1.0309461719e+05
    1.9502865151e-02    1.0305697656e+05
    1.9526379183e-02    1.0299097656e+05
    1.9549878314e-02    1.0290577344e+05
    1.9573366269e-02    1.0278934375e+05
    1.9596841186e-02    1.0264653125e+05
    1.9620303065e-02    1.0248783594e+05
    1.9643751904e-02    1.0229471094e+05
    1.9667187706e-02    1.0209631250e+05
    1.9690606743e-02    1.0189017969e+05
    1.9714014605e-02    1.0168835156e+05
    1.9737409428e-02    1.0149588281e+05
    1.9760791212e-02    1.0132885156e+05
    1.9784159958e-02    1.0117810156e+05
    1.9807513803e-02    1.0105818750e+05
    1.9830854610e-02    1.0096886719e+05
    1.9854182377e-02    1.0091559375e+05
    1.9877497107e-02    1.0090005469e+05
    1.9900798798e-02    1.0090622656e+05
    1.9924087450e-02    1.0093265625e+05
    1.9947361201e-02    1.0096843750e+05
    1.9970623776e-02    1.0101278906e+05
    1.9993871450e-02    1.0106567969e+05
    2.0017107949e-02    1.0113108594e+05
    2.0040329546e-02    1.0119477344e+05
    2.0063538104e-02    1.0126003906e+05
    2.0086731762e-02    1.0132372656e+05
    2.0109914243e-02    1.0137978906e+05
    2.0133081824e-02    1.0142647656e+05
    2.0156236365e-02    1.0146253125e+05
    2.0179376006e-02    1.0149600781e+05
    2.0202504471e-02    1.0152597656e+05
    2.0225618035e-02    1.0154553906e+05
    2.0248720422e-02    1.0156760156e+05
    2.0271807909e-02    1.0158050000e+05
    2.0294882357e-02    1.0158580469e+05
    2.0317947492e-02    1.0159185156e+05
    2.0340997726e-02    1.0159881250e+05
    2.0364036784e-02    1.0161165625e+05
    2.0387060940e-02    1.0162643750e+05
    2.0410073921e-02    1.0165057031e+05
    2.0433073863e-02    1.0167546094e+05
    2.0456060767e-02    1.0171190625e+05
    2.0479036495e-02    1.0175249219e+05
    2.0501999184e-02    1.0180467969e+05
    2.0524948835e-02    1.0186533594e+05
    2.0547885448e-02    1.0192669531e+05
    2.0570809022e-02    1.0198902344e+05
    2.0593719557e-02    1.0205172656e+05
    2.0616617054e-02    1.0211391406e+05
    2.0639499649e-02    1.0217833594e+05
    2.0662369207e-02    1.0223253125e+05
    2.0685223863e-02    1.0229153906e+05
    2.0708063617e-02    1.0234672656e+05
    2.0730890334e-02    1.0239624219e+05
    2.0753700286e-02    1.0244921875e+05
    2.0776495337e-02    1.0249153125e+05
    2.0799275488e-02    1.0253415625e+05
    2.0822042599e-02    1.0257135156e+05
    2.0844791085e-02    1.0260797656e+05
    2.0867524669e-02    1.0263092969e+05
    2.0890241489e-02    1.0265210156e+05
    2.0912945271e-02    1.0266881250e+05
    2.0935632288e-02    1.0267027344e+05
    2.0958306268e-02    1.0266683594e+05
    2.0980965346e-02    1.0266860156e+05
    2.1003607661e-02    1.0265862500e+05
    2.1026238799e-02    1.0264471094e+05
    2.1048855036e-02    1.0263025000e+05
    2.1071458235e-02    1.0260656250e+05
    2.1094048396e-02    1.0259224219e+05
    2.1116625518e-02    1.0257657031e+05
    2.1139191464e-02    1.0256197656e+05
    2.1161744371e-02    1.0254350781e+05
    2.1184286103e-02    1.0253725000e+05
    2.1206818521e-02    1.0252496094e+05
    2.1229337901e-02    1.0251421094e+05
    2.1251846105e-02    1.0249435156e+05
    2.1274344996e-02    1.0247936719e+05
    2.1296832711e-02    1.0245799219e+05
    2.1319312975e-02    1.0243439844e+05
    2.1341778338e-02    1.0241337500e+05
    2.1364232525e-02    1.0237627344e+05
    2.1386675537e-02    1.0234339844e+05
    2.1409107372e-02    1.0229950781e+05
    2.1431528032e-02    1.0225268750e+05
    2.1453931928e-02    1.0220693750e+05
    2.1476324648e-02    1.0215439844e+05
    2.1498700604e-02    1.0210135156e+05
    2.1521063522e-02    1.0204410156e+05
    2.1543409675e-02    1.0198512500e+05
    2.1565740928e-02    1.0193102344e+05
    2.1588053554e-02    1.0188030469e+05
    2.1610351279e-02    1.0183839844e+05
    2.1632634103e-02    1.0179674219e+05
    2.1654898301e-02    1.0176377344e+05
    2.1677147597e-02    1.0173728906e+05
    2.1699378267e-02    1.0171056250e+05
    2.1721594036e-02    1.0169458594e+05
    2.1743793041e-02    1.0168621094e+05
    2.1765975282e-02    1.0167833594e+05
    2.1788140759e-02    1.0168115625e+05
    2.1810289472e-02    1.0167735156e+05
    2.1832419559e-02    1.0168038281e+05
    2.1854531020e-02    1.0168399219e+05
    2.1876627579e-02    1.0168717969e+05
    2.1898705512e-02    1.0169768750e+05
    2.1920768544e-02    1.0170603906e+05
    2.1942811087e-02    1.0170624219e+05
    2.1964838728e-02    1.0170688281e+05
    2.1986849606e-02    1.0170763281e+05
    2.2008845583e-02    1.0169903125e+05
    2.2030822933e-02    1.0169116406e+05
    2.2052785382e-02    1.0168502344e+05
    2.2074732929e-02    1.0167472656e+05
    2.2096665576e-02    1.0165900781e+05
    2.2118583322e-02    1.0164950781e+05
    2.2140489891e-02    1.0162780469e+05
    2.2162377834e-02    1.0161466406e+05
    2.2184254602e-02    1.0159210156e+05
    2.2206118330e-02    1.0158302344e+05
    2.2227969021e-02    1.0157188281e+05
    2.2249806672e-02    1.0156578906e+05
    2.2271629423e-02    1.0154590625e+05
    2.2293440998e-02    1.0153191406e+05
    2.2315241396e-02    1.0153182031e+05
    2.2337028757e-02    1.0151955469e+05
    2.2358803079e-02    1.0150983594e+05
    2.2380566224e-02    1.0149809375e+05
    2.2402318195e-02    1.0149585156e+05
    2.2424057126e-02    1.0149442969e+05
    2.2445784882e-02    1.0149163281e+05
    2.2467501462e-02    1.0149172656e+05
    2.2489206865e-02    1.0149214844e+05
    2.2510899231e-02    1.0148872656e+05
    2.2532582283e-02    1.0148397656e+05
    2.2554252297e-02    1.0147458594e+05
    2.2575911134e-02    1.0147115625e+05
    2.2597560659e-02    1.0147072656e+05
    2.2619199008e-02    1.0147790625e+05
    2.2640828043e-02    1.0147996094e+05
    2.2662445903e-02    1.0148285156e+05
    2.2684050724e-02    1.0148042969e+05
    2.2705646232e-02    1.0148414844e+05
    2.2727232426e-02    1.0148852344e+05
    2.2748809308e-02    1.0149502344e+05
    2.2770375013e-02    1.0150702344e+05
    2.2791929543e-02    1.0151062500e+05
    2.2813472897e-02    1.0152160156e+05
    2.2835006937e-02    1.0152597656e+05
    2.2856531665e-02    1.0152935156e+05
    2.2878047079e-02    1.0153412500e+05
    2.2899549454e-02    1.0153574219e+05
    2.2921044379e-02    1.0154116406e+05
    2.2942528129e-02    1.0155391406e+05
    2.2964000702e-02    1.0155578906e+05
    2.2985465825e-02    1.0156228906e+05
    2.3006917909e-02    1.0156407031e+05
    2.3028360680e-02    1.0156775000e+05
    2.3049792275e-02    1.0156864844e+05
    2.3071214557e-02    1.0156422656e+05
    2.3092625663e-02    1.0156088281e+05
    2.3114029318e-02    1.0156153906e+05
    2.3135419935e-02    1.0155839844e+05
    2.3156799376e-02    1.0155696094e+05
    2.3178169504e-02    1.0155238281e+05
    2.3199530318e-02    1.0154263281e+05
    2.3220879957e-02    1.0153821094e+05
    2.3242218420e-02    1.0153121875e+05
    2.3263547570e-02    1.0152889844e+05
    2.3284865543e-02    1.0153147656e+05
    2.3306174204e-02    1.0152919531e+05
    2.3327469826e-02    1.0152046094e+05
    2.3348756135e-02    1.0151577344e+05
    2.3370031267e-02    1.0151171094e+05
    2.3391297087e-02    1.0150753906e+05
    2.3412553594e-02    1.0150606250e+05
    2.3433798924e-02    1.0150846094e+05
    2.3455033079e-02    1.0150783594e+05
    2.3476256058e-02    1.0150538281e+05
    2.3497469723e-02    1.0151594531e+05
    2.3518672213e-02    1.0151660156e+05
    2.3539865389e-02    1.0151636719e+05
    2.3561049253e-02    1.0151833594e+05
    2.3582221940e-02    1.0151931250e+05
    2.3603385314e-02    1.0152171094e+05
    2.3624535650e-02    1.0152203125e+05
    2.3645676672e-02    1.0152236719e+05
    2.3666808382e-02    1.0152516406e+05
    2.3687927052e-02    1.0152930469e+05
    2.3709038273e-02    1.0153135156e+05
    2.3730138317e-02    1.0153446875e+05
    2.3751227185e-02    1.0153086719e+05
    2.3772306740e-02    1.0153152344e+05
    2.3793375120e-02    1.0152863281e+05
    2.3814432323e-02    1.0152958594e+05
    2.3835480213e-02    1.0153528906e+05
    2.3856516927e-02    1.0153403906e+05
    2.3877544329e-02    1.0153496875e+05
    2.3898560554e-02    1.0153550781e+05
    2.3919565603e-02    1.0152639844e+05
    2.3940561339e-02    1.0152596094e+05
    2.3961545900e-02    1.0152188281e+05
    2.3982519284e-02    1.0152497656e+05
    2.4003483355e-02    1.0152257031e+05
    2.4024436250e-02    1.0152222656e+05
    2.4045377970e-02    1.0152171875e+05
    2.4066310376e-02    1.0151768750e+05
    2.4087233469e-02    1.0152136719e+05
    2.4108145386e-02    1.0151952344e+05
    2.4129044265e-02    1.0152047656e+05
    2.4149935693e-02    1.0152096094e+05
    2.4170814082e-02    1.0153067969e+05
    2.4191683158e-02    1.0152191406e+05
    2.4212542921e-02    1.0152183594e+05
    2.4233391508e-02    1.0152122656e+05
    2.4254228920e-02    1.0151344531e+05
    2.4275057018e-02    1.0151239844e+05
    2.4295873940e-02    1.0152078906e+05
    2.4316681549e-02    1.0152021094e+05
    2.4337477982e-02    1.0152072656e+05
    2.4358265102e-02    1.0151036719e+05
    2.4379042909e-02    1.0150297656e+05
    2.4399809539e-02    1.0149600781e+05
    2.4420566857e-02    1.0149360156e+05
    2.4441312999e-02    1.0148993750e+05
    2.4462047964e-02    1.0148609375e+05
    2.4482775480e-02    1.0148328125e+05
    2.4503491819e-02    1.0147674219e+05
    2.4524198845e-02    1.0146656250e+05
    2.4544894695e-02    1.0146044531e+05
    2.4565581232e-02    1.0145522656e+05
    2.4586258456e-02    1.0144872656e+05
    2.4606924504e-02    1.0143962500e+05
    2.4627581239e-02    1.0143047656e+05
    2.4648228660e-02    1.0142328906e+05
    2.4668866768e-02    1.0142521875e+05
    2.4689495564e-02    1.0142128906e+05
    2.4710113183e-02    1.0141393750e+05
    2.4730721489e-02    1.0140759375e+05
    2.4751318619e-02    1.0140231250e+05
    2.4771906435e-02    1.0139018750e+05
    2.4792486802e-02    1.0139199219e+05
    2.4813055992e-02    1.0138896094e+05
    2.4833614007e-02    1.0139496094e+05
    2.4854162708e-02    1.0140311719e+05
    2.4874702096e-02    1.0141077344e+05
    2.4895232171e-02    1.0140852344e+05
    2.4915752932e-02    1.0141471875e+05
    2.4936262518e-02    1.0142024219e+05
    2.4956764653e-02    1.0143256250e+05
    2.4977253750e-02    1.0144513281e+05
    2.4997735396e-02    1.0145677344e+05
    2.5018205866e-02    1.0147066406e+05
    2.5038668886e-02    1.0148296094e+05
    2.5059120730e-02    1.0149941406e+05
    2.5079563260e-02    1.0151239844e+05
    2.5099996477e-02    1.0153297656e+05
    2.5120420381e-02    1.0154774219e+05
    2.5140833110e-02    1.0157041406e+05
    2.5161236525e-02    1.0158249219e+05
    2.5181630626e-02    1.0160318750e+05
    2.5202017277e-02    1.0161712500e+05
    2.5222390890e-02    1.0162725000e+05
    2.5242757052e-02    1.0163133594e+05
    2.5263112038e-02    1.0163558594e+05
    2.5283459574e-02    1.0164158594e+05
    2.5303795934e-02    1.0163709375e+05
    2.5324124843e-02    1.0163036719e+05
    2.5344440714e-02    1.0162434375e+05
    2.5364749134e-02    1.0161447656e+05
    2.5385048240e-02    1.0160077344e+05
    2.5405339897e-02    1.0157897656e+05
    2.5425618514e-02    1.0155332031e+05
    2.5445887819e-02    1.0151799219e+05
    2.5466147810e-02    1.0148561719e+05
    2.5486400351e-02    1.0144927344e+05
    2.5506639853e-02    1.0141625781e+05
    2.5526873767e-02    1.0137882031e+05
    2.5547094643e-02    1.0134403906e+05
    2.5567308068e-02    1.0130636719e+05
    2.5587510318e-02    1.0127296094e+05
    2.5607703254e-02    1.0124553906e+05
    2.5627886876e-02    1.0121766406e+05
    2.5648061186e-02    1.0120383594e+05
    2.5668226182e-02    1.0118871875e+05
    2.5688380003e-02    1.0118330469e+05
    2.5708526373e-02    1.0119119531e+05
    2.5728661567e-02    1.0119999219e+05
    2.5748789310e-02    1.0121750000e+05
    2.5768904015e-02    1.0123958594e+05
    2.5789011270e-02    1.0126635156e+05
    2.5809109211e-02    1.0129755469e+05
    2.5829195976e-02    1.0132759375e+05
    2.5849273428e-02    1.0136067969e+05
    2.5869343430e-02    1.0139217969e+05
    2.5889402255e-02    1.0143047656e+05
    2.5909451768e-02    1.0146421094e+05
    2.5929493830e-02    1.0149152344e+05
    2.5949522853e-02    1.0152503125e+05
    2.5969544426e-02    1.0155281250e+05
    2.5989556685e-02    1.0158153906e+05
    2.6009559631e-02    1.0160421094e+05
    2.6029553264e-02    1.0163335156e+05
    2.6049537584e-02    1.0165722656e+05
    2.6069512591e-02    1.0168396094e+05
    2.6089478284e-02    1.0170385156e+05
    2.6109432802e-02    1.0172717969e+05
    2.6129379869e-02    1.0174814844e+05
    2.6149315760e-02    1.0176787500e+05
    2.6169244200e-02    1.0178868750e+05
    2.6189163327e-02    1.0181056250e+05
    2.6209073141e-02    1.0183124219e+05
    2.6228975505e-02    1.0185277344e+05
    2.6248866692e-02    1.0186735156e+05
    2.6268748567e-02    1.0188244531e+05
    2.6288621128e-02    1.0189733594e+05
    2.6308484375e-02    1.0191141406e+05
    2.6328338310e-02    1.0192738281e+05
    2.6348184794e-02    1.0193181250e+05
    2.6368021965e-02    1.0193834375e+05
    2.6387847960e-02    1.0194227344e+05
    2.6407664642e-02    1.0193622656e+05
    2.6427472010e-02    1.0192827344e+05
    2.6447271928e-02    1.0192646875e+05
    2.6467062533e-02    1.0191121094e+05
    2.6486843824e-02    1.0189512500e+05
    2.6506617665e-02    1.0188389844e+05
    2.6526380330e-02    1.0187007031e+05
    2.6546133682e-02    1.0185421875e+05
    2.6565877721e-02    1.0183213281e+05
    2.6585612446e-02    1.0181047656e+05
    2.6605339721e-02    1.0178827344e+05
    2.6625057682e-02    1.0177160156e+05
    2.6644766331e-02    1.0175260156e+05
    2.6664465666e-02    1.0173372656e+05
    2.6684155688e-02    1.0171422656e+05
    2.6703836396e-02    1.0169960156e+05
    2.6723509654e-02    1.0168325781e+05
    2.6743173599e-02    1.0166916406e+05
    2.6762828231e-02    1.0165950000e+05
    2.6782475412e-02    1.0164550781e+05
    2.6802113280e-02    1.0163740625e+05
    2.6821739972e-02    1.0162993750e+05
    2.6841359213e-02    1.0162628906e+05
    2.6860967278e-02    1.0161868750e+05
    2.6880569756e-02    1.0161630469e+05
    2.6900164783e-02    1.0161222656e+05
    2.6919748634e-02    1.0161264844e+05
    2.6939325035e-02    1.0161617969e+05
    2.6958892122e-02    1.0161235156e+05
    2.6978449896e-02    1.0161830469e+05
    2.6997998357e-02    1.0161211719e+05
    2.7017539367e-02    1.0161324219e+05
    2.7037071064e-02    1.0161108594e+05
    2.7056595311e-02    1.0160583594e+05
    2.7076110244e-02    1.0161121094e+05
    2.7095617726e-02    1.0160907031e+05
    2.7115115896e-02    1.0160593750e+05
    2.7134604752e-02    1.0160313281e+05
    2.7154086158e-02    1.0160974219e+05
    2.7173558250e-02    1.0160732031e+05
    2.7193021029e-02    1.0160239844e+05
    2.7212476358e-02    1.0160332031e+05
    2.7231922373e-02    1.0160187500e+05
    2.7251357213e-02    1.0159952344e+05
    2.7270786464e-02    1.0159628906e+05
    2.7290204540e-02    1.0160400781e+05
    2.7309613302e-02    1.0160446094e+05
    2.7329014614e-02    1.0161506250e+05
    2.7348404750e-02    1.0161971094e+05
    2.7367785573e-02    1.0162821094e+05
    2.7387158945e-02    1.0163146094e+05
    2.7406521142e-02    1.0164192969e+05
    2.7425874025e-02    1.0164447656e+05
    2.7445219457e-02    1.0164939844e+05
    2.7464553714e-02    1.0165219531e+05
    2.7483878657e-02    1.0166222656e+05
    2.7503194287e-02    1.0166806250e+05
    2.7522502467e-02    1.0167202344e+05
    2.7541799471e-02    1.0168103906e+05
    2.7561087161e-02    1.0168996094e+05
    2.7580365539e-02    1.0169453906e+05
    2.7599634603e-02    1.0169906250e+05
    2.7618894354e-02    1.0170358594e+05
    2.7638144791e-02    1.0170841406e+05
    2.7657385916e-02    1.0171947656e+05
    2.7676619589e-02    1.0172828906e+05
    2.7695843950e-02    1.0173396875e+05
    2.7715058997e-02    1.0173964844e+05
    2.7734262869e-02    1.0174761719e+05
    2.7753459290e-02    1.0175343750e+05
    2.7772648260e-02    1.0175932031e+05
    2.7791827917e-02    1.0176544531e+05
    2.7810998261e-02    1.0177593750e+05
    2.7830159292e-02    1.0177736719e+05
    2.7849311009e-02    1.0178810156e+05
    2.7868455276e-02    1.0179985156e+05
    2.7887590230e-02    1.0179802344e+05
    2.7906717733e-02    1.0180172656e+05
    2.7925835922e-02    1.0180753906e+05
    2.7944946662e-02    1.0181303906e+05
    2.7964048088e-02    1.0181818750e+05
    2.7983140200e-02    1.0181509375e+05
    2.8002224863e-02    1.0181621094e+05
    2.8021300212e-02    1.0182078125e+05
    2.8040368110e-02    1.0183015625e+05
    2.8059426695e-02    1.0183480469e+05
    2.8078475967e-02    1.0183458594e+05
    2.8097519651e-02    1.0183616406e+05
    2.8116554022e-02    1.0183614844e+05
    2.8135580942e-02    1.0183291406e+05
    2.8154598549e-02    1.0183403906e+05
    2.8173606843e-02    1.0183515625e+05
    2.8192607686e-02    1.0183725781e+05
    2.8211599216e-02    1.0183478906e+05
    2.8230583295e-02    1.0183658594e+05
    2.8249559924e-02    1.0183355469e+05
    2.8268527240e-02    1.0183280469e+05
    2.8287487105e-02    1.0183425781e+05
    2.8306435794e-02    1.0183577344e+05
    2.8325378895e-02    1.0183717969e+05
    2.8344312683e-02    1.0183828906e+05
    2.8363237157e-02    1.0183453906e+05
    2.8382156044e-02    1.0182784375e+05
    2.8401065618e-02    1.0182910156e+05
    2.8419965878e-02    1.0183034375e+05
    2.8438858688e-02    1.0183039844e+05
    2.8457742184e-02    1.0183174219e+05
    2.8476616368e-02    1.0182828906e+05
    2.8495483100e-02    1.0182833594e+05
    2.8514338657e-02    1.0182832031e+05
    2.8533160686e-02    1.0182834375e+05
    2.8551930562e-02    1.0182741406e+05
    2.8570635244e-02    1.0182853906e+05
    2.8589271009e-02    1.0182839844e+05
    2.8607837856e-02    1.0182815625e+05
    2.8626350686e-02    1.0182317969e+05
    2.8644818813e-02    1.0181549219e+05
    2.8663259000e-02    1.0181678125e+05
    2.8681686148e-02    1.0181605469e+05
    2.8700113297e-02    1.0182480469e+05
    2.8718546033e-02    1.0182208594e+05
    2.8736986220e-02    1.0182146875e+05
    2.8755431995e-02    1.0181871094e+05
    2.8773877770e-02    1.0181232031e+05
    2.8792314231e-02    1.0181732031e+05
    2.8810730204e-02    1.0182167969e+05
    2.8829116374e-02    1.0182250781e+05
    2.8847465292e-02    1.0182108594e+05
    2.8865773231e-02    1.0182184375e+05
    2.8884036466e-02    1.0182041406e+05
    2.8902258724e-02    1.0182016406e+05
    2.8920443729e-02    1.0181874219e+05
    2.8938598931e-02    1.0181988281e+05
    2.8956729919e-02    1.0182225781e+05
    2.8974846005e-02    1.0182249219e+05
    2.8992949054e-02    1.0182300781e+05
    2.9011042789e-02    1.0182480469e+05
    2.9029129073e-02    1.0182565625e+05
    2.9047204182e-02    1.0183228125e+05
    2.9065268114e-02    1.0183337500e+05
    2.9083315283e-02    1.0183925000e+05
    2.9101338238e-02    1.0184060156e+05
    2.9119335115e-02    1.0183963281e+05
    2.9137304053e-02    1.0184084375e+05
    2.9155241325e-02    1.0183731250e+05
    2.9173148796e-02    1.0183960156e+05
    2.9191024601e-02    1.0184428906e+05
    2.9208874330e-02    1.0184935156e+05
    2.9226697981e-02    1.0184283594e+05
    2.9244501144e-02    1.0185147656e+05
    2.9262285680e-02    1.0185671094e+05
    2.9280053452e-02    1.0185972656e+05
    2.9297806323e-02    1.0186152344e+05
    2.9315544292e-02    1.0185633594e+05
    2.9333265498e-02    1.0185787500e+05
    2.9350971803e-02    1.0186518750e+05
    2.9368655756e-02    1.0186692969e+05
    2.9386319220e-02    1.0186877344e+05
    2.9403960332e-02    1.0187300000e+05
    2.9421577230e-02    1.0187614844e+05
    2.9439168051e-02    1.0187814844e+05
    2.9456734657e-02    1.0187903125e+05
    2.9474277049e-02    1.0187991406e+05
    2.9491795227e-02    1.0188189844e+05
    2.9509292915e-02    1.0188252344e+05
    2.9526771978e-02    1.0187371875e+05
    2.9544232413e-02    1.0187730469e+05
    2.9561674222e-02    1.0188575781e+05
    2.9579099268e-02    1.0188380469e+05
    2.9596509412e-02    1.0187906250e+05
    2.9613900930e-02    1.0188011719e+05
    2.9631273821e-02    1.0188359375e+05
    2.9648626223e-02    1.0188693750e+05
    2.9665958136e-02    1.0188493750e+05
    2.9683271423e-02    1.0188521094e+05
    2.9700560495e-02    1.0188658594e+05
    2.9717829078e-02    1.0188567969e+05
    2.9735075310e-02    1.0188703125e+05
    2.9752301052e-02    1.0188825000e+05
    2.9769508168e-02    1.0188905469e+05
    2.9786696658e-02    1.0188941406e+05
    2.9803866521e-02    1.0188477344e+05
    2.9821017757e-02    1.0187967969e+05
    2.9838152230e-02    1.0187672656e+05
    2.9855269939e-02    1.0187846094e+05
    2.9872370884e-02    1.0187582031e+05
    2.9889453202e-02    1.0188146094e+05
    2.9906518757e-02    1.0188511719e+05
    2.9923565686e-02    1.0188069531e+05
    2.9940593988e-02    1.0187628906e+05
    2.9957601801e-02    1.0187867969e+05
    2.9974590987e-02    1.0188802344e+05
    2.9991561547e-02    1.0188710156e+05
    3.0008511618e-02    1.0188833594e+05
    3.0025444925e-02    1.0188613281e+05
    3.0042361468e-02    1.0188636719e+05
    3.0059259385e-02    1.0188321094e+05
    3.0076142401e-02    1.0187969531e+05
    3.0093006790e-02    1.0188214844e+05
    3.0109854415e-02    1.0188469531e+05
    3.0126683414e-02    1.0188978906e+05
    3.0143497512e-02    1.0189027344e+05
    3.0160292983e-02    1.0189308594e+05
    3.0177071691e-02    1.0188678125e+05
    3.0193833634e-02    1.0188247656e+05
    3.0210576952e-02    1.0189210156e+05
    3.0227303505e-02    1.0189375000e+05
    3.0244011432e-02    1.0189422656e+05
    3.0260702595e-02    1.0189350000e+05
    3.0277376994e-02    1.0188462500e+05
    3.0294034630e-02    1.0188953125e+05
    3.0310675502e-02    1.0189691406e+05
    3.0327299610e-02    1.0189511719e+05
    3.0343905091e-02    1.0189806250e+05
    3.0360495672e-02    1.0189385156e+05
    3.0377071351e-02    1.0189652344e+05
    3.0393628404e-02    1.0189936719e+05
    3.0410168692e-02    1.0189537500e+05
    3.0426690355e-02    1.0189841406e+05
    3.0443195254e-02    1.0190146875e+05
    3.0459685251e-02    1.0190250781e+05
    3.0476156622e-02    1.0190585156e+05
    3.0492611229e-02    1.0190717969e+05
    3.0509050936e-02    1.0190633594e+05
    3.0525473878e-02    1.0191015625e+05
    3.0541881919e-02    1.0191178906e+05
    3.0558273196e-02    1.0191350000e+05
    3.0574647710e-02    1.0191882031e+05
    3.0591005459e-02    1.0191833594e+05
    3.0607348308e-02    1.0192572656e+05
    3.0623674393e-02    1.0192510156e+05
    3.0639985576e-02    1.0192674219e+05
    3.0656279996e-02    1.0192383594e+05
    3.0672557652e-02    1.0192310156e+05
    3.0688818544e-02    1.0192583594e+05
    3.0705062672e-02    1.0193102344e+05
    3.0721291900e-02    1.0192809375e+05
    3.0737506226e-02    1.0193672656e+05
    3.0753703788e-02    1.0193391406e+05
    3.0769886449e-02    1.0193459375e+05
    3.0786054209e-02    1.0194203125e+05
    3.0802207068e-02    1.0194641406e+05
    3.0818343163e-02    1.0194950781e+05
    3.0834466219e-02    1.0195015625e+05
    3.0850572512e-02    1.0195083594e+05
    3.0866663903e-02    1.0194915625e+05
    3.0882738531e-02    1.0195802344e+05
    3.0898798257e-02    1.0195991406e+05
    3.0914843082e-02    1.0196182031e+05
    3.0930871144e-02    1.0196150781e+05
    3.0946886167e-02    1.0196342969e+05
    3.0962884426e-02    1.0196553125e+05
    3.0978867784e-02    1.0197007031e+05
    3.0994836241e-02    1.0197252344e+05
    3.1010789797e-02    1.0197503125e+05
    3.1026728451e-02    1.0197525781e+05
    3.1042650342e-02    1.0197771094e+05
    3.1058559194e-02    1.0198017969e+05
    3.1074455008e-02    1.0198277344e+05
    3.1090334058e-02    1.0198544531e+05
    3.1106200069e-02    1.0198796094e+05
    3.1122051179e-02    1.0199025000e+05
    3.1137887388e-02    1.0199227344e+05
    3.1153710559e-02    1.0198913281e+05
    3.1169516966e-02    1.0198589844e+05
    3.1185310334e-02    1.0198677344e+05
    3.1201090664e-02    1.0198727344e+05
    3.1216854230e-02    1.0197833594e+05
    3.1232602894e-02    1.0197831250e+05
    3.1248336658e-02    1.0197581250e+05
    3.1264055520e-02    1.0197544531e+05
    3.1279761344e-02    1.0197483594e+05
    3.1295452267e-02    1.0196478125e+05
    3.1311132014e-02    1.0196136719e+05
    3.1326796860e-02    1.0195992969e+05
    3.1342446804e-02    1.0195585156e+05
    3.1358085573e-02    1.0194959375e+05
    3.1373709440e-02    1.0194764844e+05
    3.1389318407e-02    1.0194897656e+05
    3.1404916197e-02    1.0194567969e+05
    3.1420499086e-02    1.0194352344e+05
    3.1436067075e-02    1.0193575000e+05
    3.1451620162e-02    1.0193360156e+05
    3.1467158347e-02    1.0193971094e+05
    3.1482685357e-02    1.0193825781e+05
    3.1498193741e-02    1.0193958594e+05
    3.1513694674e-02    1.0194334375e+05
    3.1529176980e-02    1.0194418750e+05
    3.1544648111e-02    1.0195452344e+05
    3.1560108066e-02    1.0195372656e+05
    3.1575553119e-02    1.0196017969e+05
    3.1590986997e-02    1.0195891406e+05
    3.1606405973e-02    1.0196466406e+05
    3.1621813774e-02    1.0197340625e+05
    3.1637206674e-02    1.0198000781e+05
    3.1652588397e-02    1.0198253125e+05
    3.1667951494e-02    1.0198777344e+05
    3.1683307141e-02    1.0199087500e+05
    3.1698647887e-02    1.0200102344e+05
    3.1713977456e-02    1.0200238281e+05
    3.1729292125e-02    1.0200843750e+05
    3.1744595617e-02    1.0201236719e+05
    3.1759884208e-02    1.0201505469e+05
    3.1775161624e-02    1.0202333594e+05
    3.1790427864e-02    1.0202593750e+05
    3.1805675477e-02    1.0202503125e+05
    3.1820915639e-02    1.0202732031e+05
    3.1836140901e-02    1.0202943750e+05
    3.1851354986e-02    1.0203487500e+05
    3.1866557896e-02    1.0203778906e+05
    3.1881745905e-02    1.0203346094e+05
    3.1896922737e-02    1.0203811719e+05
    3.1912088394e-02    1.0203810156e+05
    3.1927239150e-02    1.0203578906e+05
    3.1942378730e-02    1.0204031250e+05
    3.1957507133e-02    1.0204246875e+05
    3.1972620636e-02    1.0204814844e+05
    3.1987726688e-02    1.0204719531e+05
    3.2002814114e-02    1.0204946094e+05
    3.2017890364e-02    1.0205055469e+05
    3.2032959163e-02    1.0205277344e+05
    3.2048013061e-02    1.0205605469e+05
    3.2063052058e-02    1.0205803906e+05
    3.2078083605e-02    1.0205763281e+05
    3.2093103975e-02    1.0205943750e+05
    3.2108109444e-02    1.0205999219e+05
    3.2123107463e-02    1.0205821875e+05
    3.2138090581e-02    1.0205965625e+05
    3.2153062522e-02    1.0205872656e+05
    3.2168023288e-02    1.0205996094e+05
    3.2182972878e-02    1.0206121875e+05
    3.2197911292e-02    1.0206252344e+05
    3.2212834805e-02    1.0206717969e+05
    3.2227750868e-02    1.0206721875e+05
    3.2242652029e-02    1.0206361719e+05
    3.2257542014e-02    1.0206467969e+05
    3.2272424549e-02    1.0206572656e+05
    3.2287292182e-02    1.0206709375e+05
    3.2302148640e-02    1.0206931250e+05
    3.2316997647e-02    1.0206903906e+05
    3.2331831753e-02    1.0206513281e+05
    3.2346658409e-02    1.0206582031e+05
    3.2361470163e-02    1.0206624219e+05
    3.2376270741e-02    1.0206647656e+05
    3.2391063869e-02    1.0206406250e+05
    3.2405842096e-02    1.0205557031e+05
    3.2420612872e-02    1.0205597656e+05
    3.2435368747e-02    1.0205503125e+05
    3.2450113446e-02    1.0205061719e+05
    3.2464850694e-02    1.0204364844e+05
    3.2479573041e-02    1.0204733594e+05
    3.2494287938e-02    1.0205096094e+05
    3.2508991659e-02    1.0205037500e+05
    3.2523684204e-02    1.0204984375e+05
    3.2538365573e-02    1.0204918750e+05
    3.2553035766e-02    1.0204728906e+05
    3.2567698509e-02    1.0204635156e+05
    3.2582346350e-02    1.0204527344e+05
    3.2596986741e-02    1.0204539844e+05
    3.2611619681e-02    1.0204437500e+05
    3.2626237720e-02    1.0204335156e+05
    3.2640848309e-02    1.0204227344e+05
    3.2655447721e-02    1.0203639844e+05
    3.2670035958e-02    1.0203997656e+05
    3.2684613019e-02    1.0203444531e+05
    3.2699178904e-02    1.0203336719e+05
    3.2713737339e-02    1.0203681250e+05
    3.2728284597e-02    1.0203575000e+05
    3.2742820680e-02    1.0203457031e+05
    3.2757349312e-02    1.0202875000e+05
    3.2771866769e-02    1.0202269531e+05
    3.2786373049e-02    1.0201890625e+05
    3.2800871879e-02    1.0202671094e+05
    3.2815355808e-02    1.0202666406e+05
    3.2829832286e-02    1.0202436719e+05
    3.2844301313e-02    1.0202553906e+05
    3.2858755440e-02    1.0202221094e+05
    3.2873202115e-02    1.0201642969e+05
    3.2887637615e-02    1.0201860156e+05
    3.2902065665e-02    1.0201842969e+05
    3.2916482538e-02    1.0201728125e+05
    3.2930891961e-02    1.0201625000e+05
    3.2945290208e-02    1.0201536719e+05
    3.2959677279e-02    1.0201457031e+05
    3.2974056900e-02    1.0201389844e+05
    3.2988425344e-02    1.0201318750e+05
    3.3002786338e-02    1.0201252344e+05
    3.3017136157e-02    1.0201075781e+05
    3.3031478524e-02    1.0201139844e+05
    3.3045809716e-02    1.0201105469e+05
    3.3060129732e-02    1.0201082031e+05
    3.3074442297e-02    1.0201069531e+05
    3.3088747412e-02    1.0201291406e+05
    3.3103041351e-02    1.0201978906e+05
    3.3117324114e-02    1.0201772656e+05
    3.3131599426e-02    1.0201311719e+05
    3.3145863563e-02    1.0201313281e+05
    3.3160120249e-02    1.0201556250e+05
    3.3174365759e-02    1.0202118750e+05
    3.3188603818e-02    1.0201644531e+05
    3.3202830702e-02    1.0201528906e+05
    3.3217050135e-02    1.0201989844e+05
    3.3231258392e-02    1.0201196094e+05
    3.3245459199e-02    1.0201881250e+05
    3.3259648830e-02    1.0201547656e+05
    3.3273831010e-02    1.0201902344e+05
    3.3288005739e-02    1.0202281250e+05
    3.3302169293e-02    1.0201606250e+05
    3.3316325396e-02    1.0202321094e+05
    3.3330474049e-02    1.0202099219e+05
    3.3344611526e-02    1.0201437500e+05
    3.3358741552e-02    1.0202488281e+05
    3.3372864127e-02    1.0202633594e+05
    3.3386975527e-02    1.0202666406e+05
    3.3401079476e-02    1.0202484375e+05
    3.3415172249e-02    1.0202760156e+05
    3.3429257572e-02    1.0202810156e+05
    3.3443335444e-02    1.0202866406e+05
    3.3457405865e-02    1.0202922656e+05
    3.3471468836e-02    1.0202989844e+05
    3.3485524356e-02    1.0203060156e+05
    3.3499568701e-02    1.0203139844e+05
    3.3513605595e-02    1.0203224219e+05
    3.3527631313e-02    1.0203314844e+05
    3.3541653305e-02    1.0203409375e+05
    3.3555664122e-02    1.0203378906e+05
    3.3569667488e-02    1.0203571875e+05
    3.3583663404e-02    1.0203633594e+05
    3.3597648144e-02    1.0203114844e+05
    3.3611625433e-02    1.0203253125e+05
    3.3625595272e-02    1.0202791406e+05
    3.3639557660e-02    1.0202784375e+05
    3.3653512597e-02    1.0202549219e+05
    3.3667460084e-02    1.0203228906e+05
    3.3681396395e-02    1.0203460156e+05
    3.3695328981e-02    1.0202535156e+05
    3.3709254116e-02    1.0202524219e+05
    3.3723168075e-02    1.0202507031e+05
    3.3737078309e-02    1.0202485156e+05
    3.3750977367e-02    1.0202237500e+05
    3.3764872700e-02    1.0202325000e+05
    3.3778760582e-02    1.0202403125e+05
    3.3792637289e-02    1.0202110156e+05
    3.3806510270e-02    1.0201574219e+05
    3.3820372075e-02    1.0201453906e+05
    3.3834230155e-02    1.0200847656e+05
    3.3848077059e-02    1.0200689844e+05
    3.3861916512e-02    1.0200530469e+05
    3.3875752240e-02    1.0200371094e+05
    3.3889576793e-02    1.0200218750e+05
    3.3903393894e-02    1.0200083594e+05
    3.3917203546e-02    1.0200409375e+05
    3.3931009471e-02    1.0200067969e+05
    3.3944804221e-02    1.0199944531e+05
    3.3958595246e-02    1.0199365625e+05
    3.3972378820e-02    1.0199214844e+05
    3.3986151218e-02    1.0199046094e+05
    3.3999919891e-02    1.0199092969e+05
    3.4013681114e-02    1.0198899219e+05
    3.4027434886e-02    1.0198128906e+05
    3.4041177481e-02    1.0197908594e+05
    3.4054916352e-02    1.0197688281e+05
    3.4068647772e-02    1.0198030469e+05
    3.4082375467e-02    1.0197475781e+05
    3.4096091986e-02    1.0197625000e+05
    3.4109804779e-02    1.0197328906e+05
    3.4123510122e-02    1.0197041406e+05
    3.4137208015e-02    1.0196993750e+05
    3.4150898457e-02    1.0196842969e+05
    3.4164581448e-02    1.0196697656e+05
    3.4178260714e-02    1.0196655469e+05
    3.4191932529e-02    1.0196382031e+05
    3.4205596894e-02    1.0196100781e+05
    3.4219253808e-02    1.0196164844e+05
    3.4232903272e-02    1.0195996094e+05
    3.4246545285e-02    1.0195824219e+05
    3.4260183573e-02    1.0195644531e+05
    3.4273810685e-02    1.0195132031e+05
    3.4287434071e-02    1.0195562500e+05
    3.4301050007e-02    1.0195646875e+05
    3.4314658493e-02    1.0195281250e+05
    3.4328263253e-02    1.0195371094e+05
    3.4341860563e-02    1.0194781250e+05
    3.4355450422e-02    1.0194889844e+05
    3.4369036555e-02    1.0194987500e+05
    3.4382611513e-02    1.0194638281e+05
    3.4396182746e-02    1.0194746094e+05
    3.4409742802e-02    1.0194405469e+05
    3.4423299134e-02    1.0194296875e+05
    3.4436848015e-02    1.0194428906e+05
    3.4450393170e-02    1.0194231250e+05
    3.4463927150e-02    1.0194265625e+05
    3.4477461129e-02    1.0194208594e+05
    3.4490987659e-02    1.0194389844e+05
    3.4504506737e-02    1.0194569531e+05
    3.4518022090e-02    1.0194771094e+05
    3.4531529993e-02    1.0194497656e+05
    3.4545030445e-02    1.0193767969e+05
    3.4558523446e-02    1.0193925000e+05
    3.4572008997e-02    1.0193834375e+05
    3.4585487098e-02    1.0193713281e+05
    3.4598957747e-02    1.0193110156e+05
    3.4612424672e-02    1.0192475000e+05
    3.4625884145e-02    1.0192157031e+05
    3.4639336169e-02    1.0192071094e+05
    3.4652780741e-02    1.0191656250e+05
    3.4666225314e-02    1.0191483594e+05
    3.4679658711e-02    1.0192035156e+05
    3.4693088382e-02    1.0192134375e+05
    3.4706510603e-02    1.0192261719e+05
    3.4719929099e-02    1.0192050000e+05
    3.4733340144e-02    1.0191839844e+05
    3.4746743739e-02    1.0191963281e+05
    3.4760143608e-02    1.0191730469e+05
    3.4773536026e-02    1.0190787500e+05
    3.4786924720e-02    1.0190403125e+05
    3.4800305963e-02    1.0190358594e+05
    3.4813679755e-02    1.0190096094e+05
    3.4827046096e-02    1.0190660156e+05
    3.4840408713e-02    1.0190766406e+05
    3.4853763878e-02    1.0190649219e+05
    3.4867111593e-02    1.0190514844e+05
    3.4880455583e-02    1.0190252344e+05
    3.4893795848e-02    1.0189289844e+05
    3.4907124937e-02    1.0189003125e+05
    3.4920454025e-02    1.0189400781e+05
    3.4933775663e-02    1.0189710156e+05
    3.4947093576e-02    1.0188637500e+05
    3.4960404038e-02    1.0188478125e+05
    3.4973710775e-02    1.0188324219e+05
    3.4987010062e-02    1.0188171875e+05
endcurve
