Curveplot
LS-DYNA keyword deck by LS-PrePost                          
Time
Pressure
Defined Connection
Pressure @ 93 #pts=1745
* Minval=     9.9446523438e+04 at time=         0.0174630620
* Maxval=     1.6604420312e+05 at time=         0.0081336387
    0.0000000000e+00    9.9999093750e+04
    3.3812357287e-05    9.9999093750e+04
    6.1326652940e-05    9.9999250000e+04
    8.9102875791e-05    9.9997007812e+04
    1.1682785407e-04    9.9999257812e+04
    1.4461828687e-04    9.9997257812e+04
    1.7236733402e-04    9.9999914062e+04
    2.0016246708e-04    9.9998101562e+04
    2.2795486439e-04    1.0000084375e+05
    2.5574557367e-04    1.0000152344e+05
    2.8353667585e-04    1.0000333594e+05
    3.1133697485e-04    1.0000278906e+05
    3.3912662184e-04    1.0000288281e+05
    3.6691734567e-04    1.0000028906e+05
    3.9470891352e-04    9.9991914062e+04
    4.2249175021e-04    1.0000197656e+05
    4.5027161832e-04    1.0000002344e+05
    4.7804549104e-04    1.0000260156e+05
    5.0581363030e-04    1.0000474219e+05
    5.3357944125e-04    9.9996335938e+04
    5.6134146871e-04    1.0000167969e+05
    5.8909942163e-04    1.0000178125e+05
    6.1685312539e-04    9.9994570312e+04
    6.4460188150e-04    9.9995835938e+04
    6.7234638846e-04    1.0000010156e+05
    7.0008635521e-04    1.0000068750e+05
    7.2782178177e-04    1.0000144531e+05
    7.5555208605e-04    1.0000233594e+05
    7.8327720985e-04    1.0000236719e+05
    8.1099680392e-04    1.0000334375e+05
    8.3871174138e-04    9.9997757812e+04
    8.6642213864e-04    9.9993101562e+04
    8.9412782108e-04    1.0000227344e+05
    9.2182843946e-04    1.0000262500e+05
    9.4952445943e-04    1.0000258594e+05
    9.7721535712e-04    9.9999929688e+04
    1.0049008997e-03    9.9999601562e+04
    1.0325826006e-03    9.9999507812e+04
    1.0602590628e-03    1.0000425781e+05
    1.0879321489e-03    1.0000227344e+05
    1.1155996472e-03    1.0000334375e+05
    1.1432634201e-03    9.9992835938e+04
    1.1709230021e-03    9.9989789062e+04
    1.1985785095e-03    9.9991804688e+04
    1.2262313394e-03    1.0001063281e+05
    1.2538790470e-03    1.0001196094e+05
    1.2815232622e-03    1.0001047656e+05
    1.3091630535e-03    1.0000222656e+05
    1.3368004002e-03    9.9994476562e+04
    1.3644339051e-03    1.0000061719e+05
    1.3920635683e-03    1.0002150000e+05
    1.4196902048e-03    1.0005927344e+05
    1.4473132323e-03    1.0010959375e+05
    1.4749332331e-03    1.0019628125e+05
    1.5025498578e-03    1.0032171094e+05
    1.5301633393e-03    1.0051225781e+05
    1.5577742597e-03    1.0077294531e+05
    1.5853822697e-03    1.0109877344e+05
    1.6129877185e-03    1.0147035156e+05
    1.6405890929e-03    1.0186697656e+05
    1.6681876732e-03    1.0225089844e+05
    1.6957829939e-03    1.0259386719e+05
    1.7233766848e-03    1.0287052344e+05
    1.7509678146e-03    1.0304852344e+05
    1.7785291420e-03    1.0313972656e+05
    1.8060547300e-03    1.0313341406e+05
    1.8335470231e-03    1.0305308594e+05
    1.8610082334e-03    1.0292177344e+05
    1.8884401070e-03    1.0275291406e+05
    1.9158447394e-03    1.0258086719e+05
    1.9432241097e-03    1.0241708594e+05
    1.9705800805e-03    1.0229325781e+05
    1.9979148638e-03    1.0221424219e+05
    2.0252298564e-03    1.0219131250e+05
    2.0525271539e-03    1.0221664844e+05
    2.0798076876e-03    1.0227353906e+05
    2.1070730872e-03    1.0234857031e+05
    2.1343247499e-03    1.0242181250e+05
    2.1615643054e-03    1.0248034375e+05
    2.1887931507e-03    1.0252303906e+05
    2.2160108201e-03    1.0254159375e+05
    2.2432196420e-03    1.0253927344e+05
    2.2704207804e-03    1.0251810156e+05
    2.2976147011e-03    1.0248027344e+05
    2.3248014040e-03    1.0243977344e+05
    2.3519827519e-03    1.0240780469e+05
    2.3791582789e-03    1.0239489844e+05
    2.4063293822e-03    1.0238858594e+05
    2.4334960617e-03    1.0238800000e+05
    2.4606597144e-03    1.0240108594e+05
    2.4878205732e-03    1.0241753906e+05
    2.5149781723e-03    1.0242959375e+05
    2.5421329774e-03    1.0243530469e+05
    2.5692859199e-03    1.0244078125e+05
    2.5964374654e-03    1.0244611719e+05
    2.6235871483e-03    1.0244477344e+05
    2.6507352013e-03    1.0243456250e+05
    2.6778825559e-03    1.0242996094e+05
    2.7050296776e-03    1.0242032031e+05
    2.7321761008e-03    1.0241496094e+05
    2.7593218256e-03    1.0241992969e+05
    2.7864677832e-03    1.0241985156e+05
    2.8136142064e-03    1.0242357031e+05
    2.8407603968e-03    1.0243592969e+05
    2.8679079842e-03    1.0243700781e+05
    2.8950548731e-03    1.0245777344e+05
    2.9222022276e-03    1.0248721875e+05
    2.9493502807e-03    1.0253239844e+05
    2.9764990322e-03    1.0257875000e+05
    3.0036487151e-03    1.0263753906e+05
    3.0307997949e-03    1.0271641406e+05
    3.0579508748e-03    1.0281468750e+05
    3.0851035845e-03    1.0292091406e+05
    3.1122572254e-03    1.0302717969e+05
    3.1394117977e-03    1.0311238281e+05
    3.1665677670e-03    1.0320511719e+05
    3.1937246677e-03    1.0325785156e+05
    3.2208829653e-03    1.0330203906e+05
    3.2480424270e-03    1.0331072656e+05
    3.2752046827e-03    1.0328910156e+05
    3.2952371985e-03    1.0325685156e+05
    3.3145032357e-03    1.0322278906e+05
    3.3336398192e-03    1.0318450000e+05
    3.3528339118e-03    1.0314935156e+05
    3.3720366191e-03    1.0310828906e+05
    3.3912549261e-03    1.0306622656e+05
    3.4104890656e-03    1.0301647656e+05
    3.4297339153e-03    1.0297125000e+05
    3.4486323129e-03    1.0291942969e+05
    3.4671388566e-03    1.0287546875e+05
    3.4854323603e-03    1.0283035156e+05
    3.5036695190e-03    1.0277025000e+05
    3.5219141282e-03    1.0270402344e+05
    3.5401545465e-03    1.0264063281e+05
    3.5583588760e-03    1.0257089844e+05
    3.5765271168e-03    1.0249992969e+05
    3.5946895368e-03    1.0243072656e+05
    3.6139658187e-03    1.0236922656e+05
    3.6330535077e-03    1.0231389844e+05
    3.6521453876e-03    1.0227825000e+05
    3.6699753255e-03    1.0225158594e+05
    3.6875614896e-03    1.0222668750e+05
    3.7050142419e-03    1.0221364844e+05
    3.7224807311e-03    1.0220177344e+05
    3.7400643341e-03    1.0218058594e+05
    3.7577797193e-03    1.0217028906e+05
    3.7755726371e-03    1.0215710156e+05
    3.7933769636e-03    1.0214558594e+05
    3.8111612666e-03    1.0213559375e+05
    3.8289318327e-03    1.0212725000e+05
    3.8467168342e-03    1.0212396094e+05
    3.8645383902e-03    1.0211758594e+05
    3.8824023213e-03    1.0211582031e+05
    3.9002960548e-03    1.0210347656e+05
    3.9182156324e-03    1.0209168750e+05
    3.9361710660e-03    1.0207765625e+05
    3.9541716687e-03    1.0205890625e+05
    3.9733103476e-03    1.0203522656e+05
    3.9924201556e-03    1.0201449219e+05
    4.0104058571e-03    1.0199612500e+05
    4.0284004062e-03    1.0198850000e+05
    4.0464363992e-03    1.0197940625e+05
    4.0656095371e-03    1.0197143750e+05
    4.0847789496e-03    1.0196917969e+05
    4.1039343923e-03    1.0196363281e+05
    4.1219722480e-03    1.0195767969e+05
    4.1400394402e-03    1.0194646094e+05
    4.1591953486e-03    1.0193521875e+05
    4.1784178466e-03    1.0193433594e+05
    4.1976389475e-03    1.0192322656e+05
    4.2168586515e-03    1.0191207031e+05
    4.2360713705e-03    1.0190569531e+05
    4.2552771047e-03    1.0189725000e+05
    4.2744791135e-03    1.0188660156e+05
    4.2936825193e-03    1.0188272656e+05
    4.3128933758e-03    1.0187266406e+05
    4.3321144767e-03    1.0185572656e+05
    4.3513495475e-03    1.0184042969e+05
    4.3705995195e-03    1.0181974219e+05
    4.3898657896e-03    1.0179910156e+05
    4.4091497548e-03    1.0177582031e+05
    4.4284537435e-03    1.0174953906e+05
    4.4477786869e-03    1.0171942969e+05
    4.4671236537e-03    1.0167766406e+05
    4.4864914380e-03    1.0162319531e+05
    4.5058806427e-03    1.0155510156e+05
    4.5252908021e-03    1.0148417969e+05
    4.5447219163e-03    1.0140822656e+05
    4.5641721226e-03    1.0132024219e+05
    4.5836409554e-03    1.0122006250e+05
    4.6031279489e-03    1.0111041406e+05
    4.6226321720e-03    1.0098985156e+05
    4.6421540901e-03    1.0086883594e+05
    4.6616927721e-03    1.0073790625e+05
    4.6812482178e-03    1.0061306250e+05
    4.7008208930e-03    1.0049458594e+05
    4.7204112634e-03    1.0038993750e+05
    4.7400193289e-03    1.0030521875e+05
    4.7596455552e-03    1.0023358594e+05
    4.7792894766e-03    1.0018239844e+05
    4.7989510931e-03    1.0014900781e+05
    4.8186304048e-03    1.0014325000e+05
    4.8383255489e-03    1.0015510156e+05
    4.8580355942e-03    1.0018609375e+05
    4.8777610064e-03    1.0023271094e+05
    4.8975008540e-03    1.0028778906e+05
    4.9172551371e-03    1.0034709375e+05
    4.9370229244e-03    1.0041309375e+05
    4.9568060786e-03    1.0047664844e+05
    4.9766036682e-03    1.0052994531e+05
    4.9964170903e-03    1.0057539844e+05
    5.0162458792e-03    1.0061489844e+05
    5.0360900350e-03    1.0064499219e+05
    5.0559476949e-03    1.0066368750e+05
    5.0758207217e-03    1.0067318750e+05
    5.0957072526e-03    1.0067590625e+05
    5.1156077534e-03    1.0067457031e+05
    5.1355226897e-03    1.0066428906e+05
    5.1554525271e-03    1.0065481250e+05
    5.1753963344e-03    1.0063890625e+05
    5.1953555085e-03    1.0061719531e+05
    5.2153295837e-03    1.0059965625e+05
    5.2353194915e-03    1.0058306250e+05
    5.2553247660e-03    1.0057486719e+05
    5.2753463387e-03    1.0057342969e+05
    5.2953832783e-03    1.0056963281e+05
    5.3154369816e-03    1.0058182031e+05
    5.3355065174e-03    1.0058339844e+05
    5.3555918857e-03    1.0059218750e+05
    5.3756926209e-03    1.0059667969e+05
    5.3958082572e-03    1.0060878906e+05
    5.4159392603e-03    1.0062603125e+05
    5.4360851645e-03    1.0063771094e+05
    5.4562464356e-03    1.0064900000e+05
    5.4764230736e-03    1.0065971094e+05
    5.4966160096e-03    1.0066961719e+05
    5.5168238468e-03    1.0066941406e+05
    5.5370470509e-03    1.0067264844e+05
    5.5572865531e-03    1.0066596875e+05
    5.5775423534e-03    1.0066756250e+05
    5.5978130549e-03    1.0066877344e+05
    5.6181000546e-03    1.0067011719e+05
    5.6384028867e-03    1.0067174219e+05
    5.6587206200e-03    1.0068072656e+05
    5.6790532544e-03    1.0067643750e+05
    5.6994007900e-03    1.0067685156e+05
    5.7197632268e-03    1.0067997656e+05
    5.7401410304e-03    1.0068553906e+05
    5.7605337352e-03    1.0068888281e+05
    5.7809422724e-03    1.0069230469e+05
    5.8013652451e-03    1.0069572656e+05
    5.8218040504e-03    1.0069925000e+05
    5.8422577567e-03    1.0070290625e+05
    5.8627268299e-03    1.0070692969e+05
    5.8832112700e-03    1.0072025781e+05
    5.9037101455e-03    1.0072463281e+05
    5.9242248535e-03    1.0072765625e+05
    5.9447535314e-03    1.0072599219e+05
    5.9641525149e-03    1.0073464844e+05
    5.9830932878e-03    1.0073889844e+05
    6.0020405799e-03    1.0074567969e+05
    6.0210367665e-03    1.0075275781e+05
    6.0400799848e-03    1.0076450781e+05
    6.0591096990e-03    1.0076724219e+05
    6.0781282373e-03    1.0077210156e+05
    6.0972142965e-03    1.0077465625e+05
    6.1162756756e-03    1.0078402344e+05
    6.1353649944e-03    1.0078672656e+05
    6.1544459313e-03    1.0079646094e+05
    6.1734300107e-03    1.0080891406e+05
    6.1924448237e-03    1.0081714844e+05
    6.2115197070e-03    1.0083014844e+05
    6.2306127511e-03    1.0083646094e+05
    6.2497169711e-03    1.0084061719e+05
    6.2688281760e-03    1.0084727344e+05
    6.2879407778e-03    1.0086350000e+05
    6.3070552424e-03    1.0088269531e+05
    6.3261794858e-03    1.0088892969e+05
    6.3453060575e-03    1.0090946875e+05
    6.3644465990e-03    1.0093085156e+05
    6.3835908659e-03    1.0094649219e+05
    6.4027444459e-03    1.0096060156e+05
    6.4219115302e-03    1.0098233594e+05
    6.4410855994e-03    1.0100460156e+05
    6.4602680504e-03    1.0102040625e+05
    6.4794607460e-03    1.0103615625e+05
    6.4986641519e-03    1.0104362500e+05
    6.5178787336e-03    1.0105502344e+05
    6.5371058881e-03    1.0106011719e+05
    6.5563363023e-03    1.0106455469e+05
    6.5755699761e-03    1.0106584375e+05
    6.5948092379e-03    1.0107190625e+05
    6.6140629351e-03    1.0107124219e+05
    6.6333152354e-03    1.0107060156e+05
    6.6525745206e-03    1.0106906250e+05
    6.6718445159e-03    1.0106793750e+05
    6.6911154427e-03    1.0106740625e+05
    6.7104012705e-03    1.0106850781e+05
    6.7296870984e-03    1.0106917969e+05
    6.7489854991e-03    1.0107297656e+05
    6.7682852969e-03    1.0107177344e+05
    6.7875892855e-03    1.0106996094e+05
    6.8069072440e-03    1.0106996094e+05
    6.8262196146e-03    1.0106489844e+05
    6.8455408327e-03    1.0106408594e+05
    6.8648783490e-03    1.0105736719e+05
    6.8842126057e-03    1.0105958594e+05
    6.9035501219e-03    1.0106053906e+05
    6.9228983484e-03    1.0106144531e+05
    6.9422605447e-03    1.0105987500e+05
    6.9616222754e-03    1.0106021094e+05
    6.9809844717e-03    1.0105110156e+05
    7.0003494620e-03    1.0105303906e+05
    7.0197195746e-03    1.0105500781e+05
    7.0390999317e-03    1.0105362500e+05
    7.0584909990e-03    1.0105112500e+05
    7.0778946392e-03    1.0104971094e+05
    7.0973108523e-03    1.0104934375e+05
    7.1167377755e-03    1.0104991406e+05
    7.1361698210e-03    1.0104814844e+05
    7.1556069888e-03    1.0104535156e+05
    7.1750483476e-03    1.0104849219e+05
    7.1944966912e-03    1.0104985156e+05
    7.2139529511e-03    1.0105950781e+05
    7.2334166616e-03    1.0105785156e+05
    7.2528840974e-03    1.0105841406e+05
    7.2723543271e-03    1.0105871094e+05
    7.2918278165e-03    1.0104968750e+05
    7.3113050312e-03    1.0104978125e+05
    7.3307845742e-03    1.0105703906e+05
    7.3502692394e-03    1.0106259375e+05
    7.3697618209e-03    1.0106528906e+05
    7.3892641813e-03    1.0107355469e+05
    7.4087800458e-03    1.0107802344e+05
    7.4282912537e-03    1.0108347656e+05
    7.4477996677e-03    1.0108908594e+05
    7.4673094787e-03    1.0109647656e+05
    7.4868267402e-03    1.0111177344e+05
    7.5063589029e-03    1.0113014844e+05
    7.5258887373e-03    1.0115536719e+05
    7.5454111211e-03    1.0118450000e+05
    7.5649353676e-03    1.0122064844e+05
    7.5844703242e-03    1.0125953125e+05
    7.6040057465e-03    1.0131316406e+05
    7.6235276647e-03    1.0136325000e+05
    7.6430505142e-03    1.0142810156e+05
    7.6625877991e-03    1.0150314844e+05
    7.6821087860e-03    1.0158353906e+05
    7.7016241848e-03    1.0166960156e+05
    7.7211544849e-03    1.0175964844e+05
    7.7406810597e-03    1.0185122656e+05
    7.7602043748e-03    1.0193935156e+05
    7.7797495760e-03    1.0202871875e+05
    7.7992938459e-03    1.0211939844e+05
    7.8188432381e-03    1.0220703125e+05
    7.8384252265e-03    1.0230458594e+05
    7.8580006957e-03    1.0242535156e+05
    7.8775910661e-03    1.0259214844e+05
    7.8972103074e-03    1.0287564844e+05
    7.9168286175e-03    1.0337219531e+05
    7.9364804551e-03    1.0428362500e+05
    7.9561360180e-03    1.0594175000e+05
    7.9758102074e-03    1.0881088281e+05
    7.9955114052e-03    1.1344656250e+05
    8.0152126029e-03    1.2026803125e+05
    8.0349491909e-03    1.2922452344e+05
    8.0546662211e-03    1.3953750000e+05
    8.0743944272e-03    1.4971303125e+05
    8.0941170454e-03    1.5812390625e+05
    8.1138620153e-03    1.6363171875e+05
    8.1336386502e-03    1.6604420312e+05
    8.1534720957e-03    1.6596698438e+05
    8.1733558327e-03    1.6434214062e+05
    8.1932730973e-03    1.6210000000e+05
    8.2132071257e-03    1.5998856250e+05
    8.2330890000e-03    1.5829623438e+05
    8.2529615611e-03    1.5703454688e+05
    8.2727763802e-03    1.5602050000e+05
    8.2926023751e-03    1.5502237500e+05
    8.3124246448e-03    1.5384521875e+05
    8.3322748542e-03    1.5238856250e+05
    8.3521194756e-03    1.5066746875e+05
    8.3719678223e-03    1.4877184375e+05
    8.3917891607e-03    1.4681789062e+05
    8.4116021171e-03    1.4490453125e+05
    8.4314141423e-03    1.4310475000e+05
    8.4512168542e-03    1.4144050000e+05
    8.4710381925e-03    1.3990615625e+05
    8.4908353165e-03    1.3846757812e+05
    8.5106678307e-03    1.3710542188e+05
    8.5304882377e-03    1.3579192188e+05
    8.5503393784e-03    1.3451934375e+05
    8.5699046031e-03    1.3327040625e+05
    8.5892248899e-03    1.3207870312e+05
    8.6083402857e-03    1.3095677344e+05
    8.6272666231e-03    1.2991303906e+05
    8.6460309103e-03    1.2895234375e+05
    8.6646731943e-03    1.2808384375e+05
    8.6832325906e-03    1.2728702344e+05
    8.7017398328e-03    1.2655937500e+05
    8.7202098221e-03    1.2589366406e+05
    8.7386453524e-03    1.2526108594e+05
    8.7570473552e-03    1.2466564844e+05
    8.7753897533e-03    1.2409625000e+05
    8.7936492637e-03    1.2355289844e+05
    8.8118780404e-03    1.2303649219e+05
    8.8300397620e-03    1.2255089844e+05
    8.8481390849e-03    1.2208296875e+05
    8.8662039489e-03    1.2165467969e+05
    8.8842641562e-03    1.2124643750e+05
    8.9023411274e-03    1.2087256250e+05
    8.9204348624e-03    1.2050794531e+05
    8.9385388419e-03    1.2016666406e+05
    8.9566456154e-03    1.1983908594e+05
    8.9747514576e-03    1.1953025781e+05
    8.9928600937e-03    1.1923778125e+05
    9.0109808370e-03    1.1895431250e+05
    9.0291155502e-03    1.1867933594e+05
    9.0472688898e-03    1.1841997656e+05
    9.0654399246e-03    1.1816912500e+05
    9.0836230665e-03    1.1792822656e+05
    9.1018192470e-03    1.1770106250e+05
    9.1200266033e-03    1.1747853125e+05
    9.1382460669e-03    1.1726671094e+05
    9.1564757749e-03    1.1706078906e+05
    9.1747231781e-03    1.1685664844e+05
    9.1929892078e-03    1.1665264844e+05
    9.2112747952e-03    1.1645227344e+05
    9.2295790091e-03    1.1625385156e+05
    9.2479009181e-03    1.1606187500e+05
    9.2662386596e-03    1.1588452344e+05
    9.2845931649e-03    1.1570550000e+05
    9.3029672280e-03    1.1553421875e+05
    9.3213599175e-03    1.1537558594e+05
    9.3397712335e-03    1.1523846094e+05
    9.3582011759e-03    1.1511050000e+05
    9.3766497448e-03    1.1499874219e+05
    9.3951150775e-03    1.1489996875e+05
    9.4135999680e-03    1.1481085156e+05
    9.4321016222e-03    1.1472890625e+05
    9.4506228343e-03    1.1465766406e+05
    9.4691645354e-03    1.1458378906e+05
    9.4877239317e-03    1.1452050000e+05
    9.5063010231e-03    1.1445460156e+05
    9.5248948783e-03    1.1439365625e+05
    9.5435054973e-03    1.1433366406e+05
    9.5621328801e-03    1.1427389844e+05
    9.5807760954e-03    1.1421342969e+05
    9.5994332805e-03    1.1415566406e+05
    9.6181081608e-03    1.1409633594e+05
    9.6367979422e-03    1.1403261719e+05
    9.6555035561e-03    1.1397455469e+05
    9.6742231399e-03    1.1391232031e+05
    9.6929576248e-03    1.1384444531e+05
    9.7117051482e-03    1.1377533594e+05
    9.7304685041e-03    1.1369521094e+05
    9.7492448986e-03    1.1360638281e+05
    9.7680361941e-03    1.1350588281e+05
    9.7868405282e-03    1.1339878906e+05
    9.8056588322e-03    1.1328093750e+05
    9.8244920373e-03    1.1315200781e+05
    9.8433364183e-03    1.1301446875e+05
    9.8621929064e-03    1.1287257031e+05
    9.8810633644e-03    1.1272828906e+05
    9.8999459296e-03    1.1257341406e+05
    9.9188406020e-03    1.1242403906e+05
    9.9377483130e-03    1.1227397656e+05
    9.9566690624e-03    1.1212785156e+05
    9.9756028503e-03    1.1198775781e+05
    9.9945487455e-03    1.1184710156e+05
    1.0013507679e-02    1.1171727344e+05
    1.0032479651e-02    1.1160392969e+05
    1.0051463731e-02    1.1149608594e+05
    1.0070459917e-02    1.1139758594e+05
    1.0089469142e-02    1.1131664844e+05
    1.0108492337e-02    1.1124575781e+05
    1.0127528571e-02    1.1118593750e+05
    1.0146577843e-02    1.1112799219e+05
    1.0165639222e-02    1.1107314844e+05
    1.0184712708e-02    1.1102782031e+05
    1.0203798302e-02    1.1098456250e+05
    1.0222896002e-02    1.1094111719e+05
    1.0242006741e-02    1.1089821875e+05
    1.0261129588e-02    1.1085381250e+05
    1.0280264542e-02    1.1079965625e+05
    1.0299413465e-02    1.1075078125e+05
    1.0318575427e-02    1.1069727344e+05
    1.0337748565e-02    1.1063821094e+05
    1.0356934741e-02    1.1058257031e+05
    1.0376133956e-02    1.1052156250e+05
    1.0395346209e-02    1.1046406250e+05
    1.0414571501e-02    1.1040853906e+05
    1.0433809832e-02    1.1036167969e+05
    1.0453061201e-02    1.1031850781e+05
    1.0472324677e-02    1.1028386719e+05
    1.0491601191e-02    1.1025771094e+05
    1.0510892607e-02    1.1023425781e+05
    1.0530196130e-02    1.1021824219e+05
    1.0549513623e-02    1.1020550000e+05
    1.0568842292e-02    1.1019002344e+05
    1.0588183999e-02    1.1017592969e+05
    1.0607538745e-02    1.1015963281e+05
    1.0626907460e-02    1.1013717969e+05
    1.0646289214e-02    1.1010358594e+05
    1.0665684007e-02    1.1006385156e+05
    1.0685092770e-02    1.1001746094e+05
    1.0704516433e-02    1.0996546094e+05
    1.0723951273e-02    1.0990408594e+05
    1.0743400082e-02    1.0984558594e+05
    1.0762862861e-02    1.0977760156e+05
    1.0782338679e-02    1.0971283594e+05
    1.0801829398e-02    1.0964896094e+05
    1.0821334086e-02    1.0958461719e+05
    1.0840852745e-02    1.0951786719e+05
    1.0860386305e-02    1.0946314844e+05
    1.0879932903e-02    1.0941185156e+05
    1.0899493471e-02    1.0936102344e+05
    1.0919069871e-02    1.0931869531e+05
    1.0938662104e-02    1.0927764844e+05
    1.0958270170e-02    1.0924532031e+05
    1.0977892205e-02    1.0921027344e+05
    1.0997531936e-02    1.0917555469e+05
    1.1017187499e-02    1.0912833594e+05
    1.1036860757e-02    1.0907874219e+05
    1.1056551710e-02    1.0901914844e+05
    1.1076259427e-02    1.0895878906e+05
    1.1095987633e-02    1.0889405469e+05
    1.1115733534e-02    1.0882102344e+05
    1.1135498993e-02    1.0874522656e+05
    1.1155283079e-02    1.0866900781e+05
    1.1175086722e-02    1.0859122656e+05
    1.1194912717e-02    1.0851103906e+05
    1.1214758269e-02    1.0842749219e+05
    1.1234625243e-02    1.0834578906e+05
    1.1254511774e-02    1.0826225781e+05
    1.1274418794e-02    1.0817919531e+05
    1.1294347234e-02    1.0809403906e+05
    1.1314296164e-02    1.0800733594e+05
    1.1334266514e-02    1.0792650000e+05
    1.1354257353e-02    1.0784817969e+05
    1.1374268681e-02    1.0777150781e+05
    1.1394302361e-02    1.0769164844e+05
    1.1414355598e-02    1.0762044531e+05
    1.1434430256e-02    1.0754511719e+05
    1.1454525404e-02    1.0747827344e+05
    1.1474640109e-02    1.0740405469e+05
    1.1494777165e-02    1.0733557031e+05
    1.1514934711e-02    1.0726594531e+05
    1.1535113677e-02    1.0719837500e+05
    1.1555313133e-02    1.0712685156e+05
    1.1575534008e-02    1.0705265625e+05
    1.1595774442e-02    1.0698564844e+05
    1.1616035365e-02    1.0691212500e+05
    1.1636316776e-02    1.0684244531e+05
    1.1656619608e-02    1.0677728906e+05
    1.1676942930e-02    1.0671330469e+05
    1.1697287671e-02    1.0664830469e+05
    1.1717652902e-02    1.0659294531e+05
    1.1738038622e-02    1.0653766406e+05
    1.1758443899e-02    1.0648277344e+05
    1.1778870597e-02    1.0642940625e+05
    1.1799318716e-02    1.0637227344e+05
    1.1819788255e-02    1.0632032031e+05
    1.1840280145e-02    1.0626489844e+05
    1.1860790662e-02    1.0621492969e+05
    1.1881321669e-02    1.0616171094e+05
    1.1901874095e-02    1.0610428906e+05
    1.1922447011e-02    1.0605310156e+05
    1.1943042278e-02    1.0600446094e+05
    1.1963658035e-02    1.0595314844e+05
    1.1984295212e-02    1.0589778125e+05
    1.2004952878e-02    1.0584659375e+05
    1.2025631964e-02    1.0580325000e+05
    1.2046331540e-02    1.0575500000e+05
    1.2067052536e-02    1.0571488281e+05
    1.2087795883e-02    1.0567177344e+05
    1.2108558789e-02    1.0562355469e+05
    1.2129344046e-02    1.0556783594e+05
    1.2150149792e-02    1.0551044531e+05
    1.2170976959e-02    1.0544644531e+05
    1.2191825546e-02    1.0537327344e+05
    1.2212695554e-02    1.0529567969e+05
    1.2233586982e-02    1.0521632031e+05
    1.2254500762e-02    1.0512683594e+05
    1.2275436893e-02    1.0502677344e+05
    1.2296394445e-02    1.0492972656e+05
    1.2317374349e-02    1.0483016406e+05
    1.2338375673e-02    1.0474272656e+05
    1.2359398417e-02    1.0465928125e+05
    1.2380442582e-02    1.0458235156e+05
    1.2401508167e-02    1.0451944531e+05
    1.2422595173e-02    1.0445683594e+05
    1.2443703599e-02    1.0441158594e+05
    1.2464834377e-02    1.0437371094e+05
    1.2485986575e-02    1.0435781250e+05
    1.2507158332e-02    1.0434792969e+05
    1.2528351508e-02    1.0435477344e+05
    1.2549565174e-02    1.0436303906e+05
    1.2570801191e-02    1.0436714844e+05
    1.2592058629e-02    1.0436578125e+05
    1.2613337487e-02    1.0435513281e+05
    1.2634636834e-02    1.0433228906e+05
    1.2655957602e-02    1.0429740625e+05
    1.2677297927e-02    1.0425706250e+05
    1.2698660605e-02    1.0420435156e+05
    1.2720043771e-02    1.0414953125e+05
    1.2741449289e-02    1.0409631250e+05
    1.2762876227e-02    1.0404050781e+05
    1.2784325518e-02    1.0399587500e+05
    1.2805794366e-02    1.0395796875e+05
    1.2827285565e-02    1.0392540625e+05
    1.2848797254e-02    1.0389150000e+05
    1.2870330364e-02    1.0386841406e+05
    1.2891885825e-02    1.0385411719e+05
    1.2913462706e-02    1.0383742969e+05
    1.2935061008e-02    1.0381889844e+05
    1.2956679799e-02    1.0379869531e+05
    1.2978320010e-02    1.0376649219e+05
    1.2999981642e-02    1.0374013281e+05
    1.3021663763e-02    1.0370642969e+05
    1.3043368235e-02    1.0367264844e+05
    1.3065092266e-02    1.0363739844e+05
    1.3086837716e-02    1.0360400000e+05
    1.3108605519e-02    1.0356678906e+05
    1.3130392879e-02    1.0353462500e+05
    1.3152201660e-02    1.0349710156e+05
    1.3174032792e-02    1.0345178906e+05
    1.3195885345e-02    1.0340757031e+05
    1.3217759319e-02    1.0335616406e+05
    1.3239653781e-02    1.0331658594e+05
    1.3261569664e-02    1.0327203906e+05
    1.3283506967e-02    1.0323894531e+05
    1.3305463828e-02    1.0320537500e+05
    1.3327440247e-02    1.0318485156e+05
    1.3349435292e-02    1.0317746875e+05
    1.3371448033e-02    1.0318507031e+05
    1.3393475674e-02    1.0321686719e+05
    1.3415516354e-02    1.0327850781e+05
    1.3437564485e-02    1.0338705469e+05
    1.3459613547e-02    1.0355078906e+05
    1.3481658883e-02    1.0378296094e+05
    1.3503690250e-02    1.0410192969e+05
    1.3525702059e-02    1.0452196875e+05
    1.3547683135e-02    1.0506927344e+05
    1.3569628820e-02    1.0573328906e+05
    1.3591531664e-02    1.0652135156e+05
    1.3613392599e-02    1.0741514844e+05
    1.3635210693e-02    1.0836933594e+05
    1.3656994328e-02    1.0933406250e+05
    1.3678749092e-02    1.1024660156e+05
    1.3700488023e-02    1.1103216406e+05
    1.3722228818e-02    1.1163478906e+05
    1.3743981719e-02    1.1202371094e+05
    1.3765762560e-02    1.1217083594e+05
    1.3787578791e-02    1.1208546094e+05
    1.3809437864e-02    1.1178761719e+05
    1.3831341639e-02    1.1131772656e+05
    1.3853288256e-02    1.1070796094e+05
    1.3875273056e-02    1.1002111719e+05
    1.3897285797e-02    1.0930253125e+05
    1.3919321820e-02    1.0860622656e+05
    1.3941374607e-02    1.0797135156e+05
    1.3963440433e-02    1.0743825781e+05
    1.3985517435e-02    1.0700403125e+05
    1.4007603750e-02    1.0667118750e+05
    1.4029704034e-02    1.0640265625e+05
    1.4051820152e-02    1.0617262500e+05
    1.4073957689e-02    1.0594033594e+05
    1.4096121304e-02    1.0567260156e+05
    1.4118315652e-02    1.0535230469e+05
    1.4140545391e-02    1.0497817969e+05
    1.4162814245e-02    1.0454594531e+05
    1.4185124077e-02    1.0406071875e+05
    1.4207473956e-02    1.0355849219e+05
    1.4229862019e-02    1.0305861719e+05
    1.4252286404e-02    1.0259042969e+05
    1.4274741523e-02    1.0217659375e+05
    1.4297228307e-02    1.0182347656e+05
    1.4319745824e-02    1.0154666406e+05
    1.4342290349e-02    1.0133863281e+05
    1.4364863746e-02    1.0119805469e+05
    1.4387467876e-02    1.0112391406e+05
    1.4410103671e-02    1.0110127344e+05
    1.4432771131e-02    1.0111919531e+05
    1.4455472119e-02    1.0115539844e+05
    1.4478209428e-02    1.0120190625e+05
    1.4500979334e-02    1.0124596094e+05
    1.4523783699e-02    1.0129256250e+05
    1.4546621591e-02    1.0132255469e+05
    1.4569494873e-02    1.0134032031e+05
    1.4592399821e-02    1.0133865625e+05
    1.4615339227e-02    1.0131702344e+05
    1.4638305642e-02    1.0128903906e+05
    1.4661304653e-02    1.0125216406e+05
    1.4684336260e-02    1.0120682031e+05
    1.4707398601e-02    1.0117456250e+05
    1.4730494469e-02    1.0114785156e+05
    1.4753622934e-02    1.0112714844e+05
    1.4776783995e-02    1.0111528906e+05
    1.4799979515e-02    1.0111803125e+05
    1.4823205769e-02    1.0113246094e+05
    1.4846466482e-02    1.0116164844e+05
    1.4869757928e-02    1.0120403125e+05
    1.4893081971e-02    1.0125772656e+05
    1.4916437678e-02    1.0132718750e+05
    1.4939822257e-02    1.0140083594e+05
    1.4963239431e-02    1.0148021875e+05
    1.4986685477e-02    1.0155941406e+05
    1.5010161325e-02    1.0162521875e+05
    1.5033668838e-02    1.0168215625e+05
    1.5057205223e-02    1.0171683594e+05
    1.5080772340e-02    1.0173387500e+05
    1.5104367398e-02    1.0173433594e+05
    1.5127992257e-02    1.0172466406e+05
    1.5151646920e-02    1.0171674219e+05
    1.5175330453e-02    1.0171116406e+05
    1.5199041925e-02    1.0171960156e+05
    1.5222782269e-02    1.0173139844e+05
    1.5246548690e-02    1.0175432031e+05
    1.5270343982e-02    1.0177960156e+05
    1.5294168144e-02    1.0181331250e+05
    1.5318016522e-02    1.0184531250e+05
    1.5341891907e-02    1.0187093750e+05
    1.5365792438e-02    1.0189036719e+05
    1.5389721841e-02    1.0190507031e+05
    1.5413676389e-02    1.0190528906e+05
    1.5437657945e-02    1.0189990625e+05
    1.5461664647e-02    1.0189247656e+05
    1.5485695563e-02    1.0188002344e+05
    1.5509752557e-02    1.0186919531e+05
    1.5533835627e-02    1.0186682031e+05
    1.5557944775e-02    1.0185785156e+05
    1.5582079068e-02    1.0185986719e+05
    1.5606240369e-02    1.0186180469e+05
    1.5630424023e-02    1.0186234375e+05
    1.5654634684e-02    1.0187062500e+05
    1.5678871423e-02    1.0187271094e+05
    1.5703132376e-02    1.0187685156e+05
    1.5727419406e-02    1.0187813281e+05
    1.5751728788e-02    1.0187714844e+05
    1.5776060522e-02    1.0187685156e+05
    1.5800418332e-02    1.0187734375e+05
    1.5824800357e-02    1.0188066406e+05
    1.5849204734e-02    1.0188202344e+05
    1.5873633325e-02    1.0187880469e+05
    1.5898084268e-02    1.0186303906e+05
    1.5922557563e-02    1.0184992969e+05
    1.5947058797e-02    1.0183915625e+05
    1.5971582383e-02    1.0182783594e+05
    1.5996130183e-02    1.0181293750e+05
    1.6020702198e-02    1.0179746094e+05
    1.6045298427e-02    1.0177478125e+05
    1.6069920734e-02    1.0175400000e+05
    1.6094569117e-02    1.0173552344e+05
    1.6119243577e-02    1.0171794531e+05
    1.6143942252e-02    1.0169819531e+05
    1.6168667004e-02    1.0167089844e+05
    1.6193419695e-02    1.0163262500e+05
    1.6218200326e-02    1.0158877344e+05
    1.6243007034e-02    1.0154091406e+05
    1.6267839819e-02    1.0148284375e+05
    1.6292702407e-02    1.0141378906e+05
    1.6317596659e-02    1.0133487500e+05
    1.6342513263e-02    1.0125221094e+05
    1.6367461532e-02    1.0117121875e+05
    1.6392435879e-02    1.0107871094e+05
    1.6417443752e-02    1.0099224219e+05
    1.6442479566e-02    1.0090527344e+05
    1.6467543319e-02    1.0082167969e+05
    1.6492636874e-02    1.0073983594e+05
    1.6517756507e-02    1.0066789844e+05
    1.6542907804e-02    1.0060127344e+05
    1.6568088904e-02    1.0053807031e+05
    1.6593271866e-02    1.0048353125e+05
    1.6618426889e-02    1.0044427344e+05
    1.6643559560e-02    1.0041231250e+05
    1.6668669879e-02    1.0039061719e+05
    1.6693757847e-02    1.0037988281e+05
    1.6718825325e-02    1.0037796094e+05
    1.6743874177e-02    1.0038059375e+05
    1.6768900678e-02    1.0039158594e+05
    1.6793908551e-02    1.0040097656e+05
    1.6818899661e-02    1.0042360156e+05
    1.6843874007e-02    1.0043780469e+05
    1.6868829727e-02    1.0045959375e+05
    1.6893770546e-02    1.0047283594e+05
    1.6918692738e-02    1.0047542969e+05
    1.6943598166e-02    1.0047563281e+05
    1.6968490556e-02    1.0047133594e+05
    1.6993366182e-02    1.0045646094e+05
    1.7018226907e-02    1.0043721094e+05
    1.7043072730e-02    1.0040713281e+05
    1.7067901790e-02    1.0036664844e+05
    1.7092714086e-02    1.0032556250e+05
    1.7117511481e-02    1.0027672656e+05
    1.7142292112e-02    1.0021275781e+05
    1.7167057842e-02    1.0014705469e+05
    1.7191808671e-02    1.0007003906e+05
    1.7216544598e-02    9.9996414062e+04
    1.7241263762e-02    9.9911710938e+04
    1.7265968025e-02    9.9823898438e+04
    1.7290659249e-02    9.9741718750e+04
    1.7315333709e-02    9.9668773438e+04
    1.7339993268e-02    9.9608226562e+04
    1.7364639789e-02    9.9556820312e+04
    1.7389267683e-02    9.9513476562e+04
    1.7413880676e-02    9.9476539062e+04
    1.7438478768e-02    9.9453757812e+04
    1.7463061959e-02    9.9446523438e+04
    1.7487626523e-02    9.9458554688e+04
    1.7512176186e-02    9.9479289062e+04
    1.7536709085e-02    9.9512976562e+04
    1.7561223358e-02    9.9555992188e+04
    1.7585720867e-02    9.9603164062e+04
    1.7610201612e-02    9.9658960938e+04
    1.7634663731e-02    9.9714460938e+04
    1.7659107223e-02    9.9775679688e+04
    1.7683532089e-02    9.9832726562e+04
    1.7707940191e-02    9.9889429688e+04
    1.7732329667e-02    9.9944148438e+04
    1.7756698653e-02    9.9996085938e+04
    1.7781050876e-02    1.0004237500e+05
    1.7805384472e-02    1.0008906250e+05
    1.7829699442e-02    1.0012896094e+05
    1.7853999510e-02    1.0016591406e+05
    1.7878280953e-02    1.0019996094e+05
    1.7902545631e-02    1.0022733594e+05
    1.7926793545e-02    1.0025816406e+05
    1.7951028422e-02    1.0028275781e+05
    1.7975246534e-02    1.0030296094e+05
    1.7999447882e-02    1.0031980469e+05
    1.8023636192e-02    1.0033730469e+05
    1.8047811463e-02    1.0033964844e+05
    1.8071975559e-02    1.0034875781e+05
    1.8096126616e-02    1.0035578125e+05
    1.8120266497e-02    1.0035177344e+05
    1.8144397065e-02    1.0035025000e+05
    1.8168520182e-02    1.0034566406e+05
    1.8192630261e-02    1.0034453906e+05
    1.8216732889e-02    1.0034462500e+05
    1.8240824342e-02    1.0035432031e+05
    1.8264908344e-02    1.0036169531e+05
    1.8288983032e-02    1.0037375000e+05
    1.8313048407e-02    1.0039028125e+05
    1.8337102607e-02    1.0041610156e+05
    1.8361147493e-02    1.0044744531e+05
    1.8385183066e-02    1.0047912500e+05
    1.8409207463e-02    1.0052125000e+05
    1.8433224410e-02    1.0055468750e+05
    1.8457230181e-02    1.0060041406e+05
    1.8481226638e-02    1.0064508594e+05
    1.8505210057e-02    1.0068900781e+05
    1.8529184163e-02    1.0073772656e+05
    1.8553148955e-02    1.0078966406e+05
    1.8577100709e-02    1.0084114844e+05
    1.8601041287e-02    1.0089341406e+05
    1.8624972552e-02    1.0095425781e+05
    1.8648892641e-02    1.0101414844e+05
    1.8672801554e-02    1.0108157031e+05
    1.8696699291e-02    1.0115352344e+05
    1.8720587716e-02    1.0122653906e+05
    1.8744463101e-02    1.0129714844e+05
    1.8768329173e-02    1.0136305469e+05
    1.8792184070e-02    1.0142828125e+05
    1.8816027790e-02    1.0148812500e+05
    1.8839860335e-02    1.0153950000e+05
    1.8863683566e-02    1.0158775781e+05
    1.8887493759e-02    1.0162311719e+05
    1.8911294639e-02    1.0165697656e+05
    1.8935086206e-02    1.0167340625e+05
    1.8958866596e-02    1.0169010156e+05
    1.8982635811e-02    1.0169985156e+05
    1.9006397575e-02    1.0170702344e+05
    1.9030146301e-02    1.0170958594e+05
    1.9053885713e-02    1.0171874219e+05
    1.9077615812e-02    1.0172928906e+05
    1.9101334736e-02    1.0174350781e+05
    1.9125042483e-02    1.0176310156e+05
    1.9148740917e-02    1.0179221094e+05
    1.9172428176e-02    1.0182434375e+05
    1.9196104258e-02    1.0187102344e+05
    1.9219771028e-02    1.0193244531e+05
    1.9243424758e-02    1.0200287500e+05
    1.9267069176e-02    1.0207822656e+05
    1.9290700555e-02    1.0216592969e+05
    1.9314322621e-02    1.0226418750e+05
    1.9337931648e-02    1.0237087500e+05
    1.9361529499e-02    1.0248133594e+05
    1.9385114312e-02    1.0259014844e+05
    1.9408687949e-02    1.0269546094e+05
    1.9432250410e-02    1.0278821094e+05
    1.9455801696e-02    1.0287025000e+05
    1.9479339942e-02    1.0294246094e+05
    1.9502865151e-02    1.0298662500e+05
    1.9526379183e-02    1.0300625000e+05
    1.9549878314e-02    1.0300669531e+05
    1.9573366269e-02    1.0297967969e+05
    1.9596841186e-02    1.0292372656e+05
    1.9620303065e-02    1.0283657031e+05
    1.9643751904e-02    1.0272531250e+05
    1.9667187706e-02    1.0258347656e+05
    1.9690606743e-02    1.0241719531e+05
    1.9714014605e-02    1.0223616406e+05
    1.9737409428e-02    1.0204697656e+05
    1.9760791212e-02    1.0183997656e+05
    1.9784159958e-02    1.0164346094e+05
    1.9807513803e-02    1.0145018750e+05
    1.9830854610e-02    1.0128608594e+05
    1.9854182377e-02    1.0113914844e+05
    1.9877497107e-02    1.0101610156e+05
    1.9900798798e-02    1.0092785156e+05
    1.9924087450e-02    1.0087166406e+05
    1.9947361201e-02    1.0084078906e+05
    1.9970623776e-02    1.0083609375e+05
    1.9993871450e-02    1.0084960156e+05
    2.0017107949e-02    1.0088071875e+05
    2.0040329546e-02    1.0091758594e+05
    2.0063538104e-02    1.0095608594e+05
    2.0086731762e-02    1.0099771094e+05
    2.0109914243e-02    1.0104050781e+05
    2.0133081824e-02    1.0108574219e+05
    2.0156236365e-02    1.0111881250e+05
    2.0179376006e-02    1.0115790625e+05
    2.0202504471e-02    1.0119442969e+05
    2.0225618035e-02    1.0122621094e+05
    2.0248720422e-02    1.0125132031e+05
    2.0271807909e-02    1.0127647656e+05
    2.0294882357e-02    1.0130396875e+05
    2.0317947492e-02    1.0133849219e+05
    2.0340997726e-02    1.0137106250e+05
    2.0364036784e-02    1.0140839844e+05
    2.0387060940e-02    1.0144855469e+05
    2.0410073921e-02    1.0149127344e+05
    2.0433073863e-02    1.0153558594e+05
    2.0456060767e-02    1.0158199219e+05
    2.0479036495e-02    1.0163594531e+05
    2.0501999184e-02    1.0169102344e+05
    2.0524948835e-02    1.0175403125e+05
    2.0547885448e-02    1.0181521094e+05
    2.0570809022e-02    1.0187121875e+05
    2.0593719557e-02    1.0192902344e+05
    2.0616617054e-02    1.0198775781e+05
    2.0639499649e-02    1.0204281250e+05
    2.0662369207e-02    1.0209246875e+05
    2.0685223863e-02    1.0213663281e+05
    2.0708063617e-02    1.0217508594e+05
    2.0730890334e-02    1.0220553906e+05
    2.0753700286e-02    1.0223888281e+05
    2.0776495337e-02    1.0226658594e+05
    2.0799275488e-02    1.0229889844e+05
    2.0822042599e-02    1.0233274219e+05
    2.0844791085e-02    1.0236530469e+05
    2.0867524669e-02    1.0240235156e+05
    2.0890241489e-02    1.0244243750e+05
    2.0912945271e-02    1.0247757031e+05
    2.0935632288e-02    1.0251812500e+05
    2.0958306268e-02    1.0256105469e+05
    2.0980965346e-02    1.0260166406e+05
    2.1003607661e-02    1.0264152344e+05
    2.1026238799e-02    1.0267603906e+05
    2.1048855036e-02    1.0270610156e+05
    2.1071458235e-02    1.0273471094e+05
    2.1094048396e-02    1.0275228125e+05
    2.1116625518e-02    1.0277853906e+05
    2.1139191464e-02    1.0279383594e+05
    2.1161744371e-02    1.0280572656e+05
    2.1184286103e-02    1.0281368750e+05
    2.1206818521e-02    1.0281639844e+05
    2.1229337901e-02    1.0281627344e+05
    2.1251846105e-02    1.0281308594e+05
    2.1274344996e-02    1.0280537500e+05
    2.1296832711e-02    1.0279013281e+05
    2.1319312975e-02    1.0276437500e+05
    2.1341778338e-02    1.0273493750e+05
    2.1364232525e-02    1.0270068750e+05
    2.1386675537e-02    1.0266075000e+05
    2.1409107372e-02    1.0261521094e+05
    2.1431528032e-02    1.0256589844e+05
    2.1453931928e-02    1.0250471875e+05
    2.1476324648e-02    1.0244068750e+05
    2.1498700604e-02    1.0237853906e+05
    2.1521063522e-02    1.0231274219e+05
    2.1543409675e-02    1.0224599219e+05
    2.1565740928e-02    1.0217460156e+05
    2.1588053554e-02    1.0210521094e+05
    2.1610351279e-02    1.0203650000e+05
    2.1632634103e-02    1.0196552344e+05
    2.1654898301e-02    1.0190343750e+05
    2.1677147597e-02    1.0184164844e+05
    2.1699378267e-02    1.0179210156e+05
    2.1721594036e-02    1.0173800000e+05
    2.1743793041e-02    1.0169108594e+05
    2.1765975282e-02    1.0164371875e+05
    2.1788140759e-02    1.0161216406e+05
    2.1810289472e-02    1.0157852344e+05
    2.1832419559e-02    1.0155053906e+05
    2.1854531020e-02    1.0152855469e+05
    2.1876627579e-02    1.0151064844e+05
    2.1898705512e-02    1.0149087500e+05
    2.1920768544e-02    1.0148533594e+05
    2.1942811087e-02    1.0148030469e+05
    2.1964838728e-02    1.0147985156e+05
    2.1986849606e-02    1.0147121094e+05
    2.2008845583e-02    1.0146971094e+05
    2.2030822933e-02    1.0146653125e+05
    2.2052785382e-02    1.0146475781e+05
    2.2074732929e-02    1.0146858594e+05
    2.2096665576e-02    1.0146696875e+05
    2.2118583322e-02    1.0147103906e+05
    2.2140489891e-02    1.0146919531e+05
    2.2162377834e-02    1.0147125781e+05
    2.2184254602e-02    1.0147153906e+05
    2.2206118330e-02    1.0146771875e+05
    2.2227969021e-02    1.0146425000e+05
    2.2249806672e-02    1.0146614844e+05
    2.2271629423e-02    1.0146747656e+05
    2.2293440998e-02    1.0147190625e+05
    2.2315241396e-02    1.0146784375e+05
    2.2337028757e-02    1.0146906250e+05
    2.2358803079e-02    1.0147166406e+05
    2.2380566224e-02    1.0146903906e+05
    2.2402318195e-02    1.0146718750e+05
    2.2424057126e-02    1.0147647656e+05
    2.2445784882e-02    1.0148119531e+05
    2.2467501462e-02    1.0148536719e+05
    2.2489206865e-02    1.0149177344e+05
    2.2510899231e-02    1.0149485156e+05
    2.2532582283e-02    1.0150022656e+05
    2.2554252297e-02    1.0150108594e+05
    2.2575911134e-02    1.0149737500e+05
    2.2597560659e-02    1.0150143750e+05
    2.2619199008e-02    1.0150562500e+05
    2.2640828043e-02    1.0150872656e+05
    2.2662445903e-02    1.0150728906e+05
    2.2684050724e-02    1.0150788281e+05
    2.2705646232e-02    1.0150600781e+05
    2.2727232426e-02    1.0150262500e+05
    2.2748809308e-02    1.0150128906e+05
    2.2770375013e-02    1.0149953906e+05
    2.2791929543e-02    1.0149292969e+05
    2.2813472897e-02    1.0148991406e+05
    2.2835006937e-02    1.0148928125e+05
    2.2856531665e-02    1.0148983594e+05
    2.2878047079e-02    1.0148346094e+05
    2.2899549454e-02    1.0149211719e+05
    2.2921044379e-02    1.0148941406e+05
    2.2942528129e-02    1.0149025781e+05
    2.2964000702e-02    1.0149353125e+05
    2.2985465825e-02    1.0149396875e+05
    2.3006917909e-02    1.0149953906e+05
    2.3028360680e-02    1.0149837500e+05
    2.3049792275e-02    1.0150656250e+05
    2.3071214557e-02    1.0151278906e+05
    2.3092625663e-02    1.0151471094e+05
    2.3114029318e-02    1.0151877344e+05
    2.3135419935e-02    1.0152297656e+05
    2.3156799376e-02    1.0152507031e+05
    2.3178169504e-02    1.0153128906e+05
    2.3199530318e-02    1.0154278125e+05
    2.3220879957e-02    1.0155396094e+05
    2.3242218420e-02    1.0156396875e+05
    2.3263547570e-02    1.0155800781e+05
    2.3284865543e-02    1.0156342969e+05
    2.3306174204e-02    1.0156666406e+05
    2.3327469826e-02    1.0158146875e+05
    2.3348756135e-02    1.0158474219e+05
    2.3370031267e-02    1.0157955469e+05
    2.3391297087e-02    1.0158111719e+05
    2.3412553594e-02    1.0159307031e+05
    2.3433798924e-02    1.0159585156e+05
    2.3455033079e-02    1.0159617969e+05
    2.3476256058e-02    1.0159364844e+05
    2.3497469723e-02    1.0159303906e+05
    2.3518672213e-02    1.0159415625e+05
    2.3539865389e-02    1.0158928906e+05
    2.3561049253e-02    1.0159072656e+05
    2.3582221940e-02    1.0158696875e+05
    2.3603385314e-02    1.0158035156e+05
    2.3624535650e-02    1.0157675781e+05
    2.3645676672e-02    1.0157174219e+05
    2.3666808382e-02    1.0156989844e+05
    2.3687927052e-02    1.0156546094e+05
    2.3709038273e-02    1.0156196094e+05
    2.3730138317e-02    1.0155216406e+05
    2.3751227185e-02    1.0154500000e+05
    2.3772306740e-02    1.0153864844e+05
    2.3793375120e-02    1.0152930469e+05
    2.3814432323e-02    1.0153047656e+05
    2.3835480213e-02    1.0152691406e+05
    2.3856516927e-02    1.0151766406e+05
    2.3877544329e-02    1.0151312500e+05
    2.3898560554e-02    1.0151322656e+05
    2.3919565603e-02    1.0151115625e+05
    2.3940561339e-02    1.0150717969e+05
    2.3961545900e-02    1.0150780469e+05
    2.3982519284e-02    1.0150517969e+05
    2.4003483355e-02    1.0150971094e+05
    2.4024436250e-02    1.0150803125e+05
    2.4045377970e-02    1.0150909375e+05
    2.4066310376e-02    1.0151409375e+05
    2.4087233469e-02    1.0151600781e+05
    2.4108145386e-02    1.0151566406e+05
    2.4129044265e-02    1.0151783594e+05
    2.4149935693e-02    1.0152091406e+05
    2.4170814082e-02    1.0152072656e+05
    2.4191683158e-02    1.0152055469e+05
    2.4212542921e-02    1.0152030469e+05
    2.4233391508e-02    1.0151999219e+05
    2.4254228920e-02    1.0151503906e+05
    2.4275057018e-02    1.0150838281e+05
    2.4295873940e-02    1.0150847656e+05
    2.4316681549e-02    1.0150730469e+05
    2.4337477982e-02    1.0150710156e+05
    2.4358265102e-02    1.0149991406e+05
    2.4379042909e-02    1.0149550000e+05
    2.4399809539e-02    1.0148602344e+05
    2.4420566857e-02    1.0148291406e+05
    2.4441312999e-02    1.0146936719e+05
    2.4462047964e-02    1.0146477344e+05
    2.4482775480e-02    1.0146353125e+05
    2.4503491819e-02    1.0146693750e+05
    2.4524198845e-02    1.0146215625e+05
    2.4544894695e-02    1.0145031250e+05
    2.4565581232e-02    1.0144862500e+05
    2.4586258456e-02    1.0144477344e+05
    2.4606924504e-02    1.0144114844e+05
    2.4627581239e-02    1.0144234375e+05
    2.4648228660e-02    1.0144144531e+05
    2.4668866768e-02    1.0143856250e+05
    2.4689495564e-02    1.0144293750e+05
    2.4710113183e-02    1.0144057031e+05
    2.4730721489e-02    1.0143964844e+05
    2.4751318619e-02    1.0143890625e+05
    2.4771906435e-02    1.0144063281e+05
    2.4792486802e-02    1.0144396875e+05
    2.4813055992e-02    1.0144427344e+05
    2.4833614007e-02    1.0144491406e+05
    2.4854162708e-02    1.0145041406e+05
    2.4874702096e-02    1.0145556250e+05
    2.4895232171e-02    1.0145619531e+05
    2.4915752932e-02    1.0145715625e+05
    2.4936262518e-02    1.0146628125e+05
    2.4956764653e-02    1.0146756250e+05
    2.4977253750e-02    1.0146672656e+05
    2.4997735396e-02    1.0147778906e+05
    2.5018205866e-02    1.0147910156e+05
    2.5038668886e-02    1.0148666406e+05
    2.5059120730e-02    1.0149806250e+05
    2.5079563260e-02    1.0150272656e+05
    2.5099996477e-02    1.0150653906e+05
    2.5120420381e-02    1.0151296094e+05
    2.5140833110e-02    1.0151596094e+05
    2.5161236525e-02    1.0152585156e+05
    2.5181630626e-02    1.0153139844e+05
    2.5202017277e-02    1.0153469531e+05
    2.5222390890e-02    1.0153910156e+05
    2.5242757052e-02    1.0154121875e+05
    2.5263112038e-02    1.0154674219e+05
    2.5283459574e-02    1.0155218750e+05
    2.5303795934e-02    1.0155141406e+05
    2.5324124843e-02    1.0155140625e+05
    2.5344440714e-02    1.0154585156e+05
    2.5364749134e-02    1.0153952344e+05
    2.5385048240e-02    1.0153221094e+05
    2.5405339897e-02    1.0151903906e+05
    2.5425618514e-02    1.0150496094e+05
    2.5445887819e-02    1.0149042969e+05
    2.5466147810e-02    1.0146628906e+05
    2.5486400351e-02    1.0144711719e+05
    2.5506639853e-02    1.0142643750e+05
    2.5526873767e-02    1.0140171094e+05
    2.5547094643e-02    1.0137206250e+05
    2.5567308068e-02    1.0134572656e+05
    2.5587510318e-02    1.0132046875e+05
    2.5607703254e-02    1.0129903906e+05
    2.5627886876e-02    1.0127875781e+05
    2.5648061186e-02    1.0125085156e+05
    2.5668226182e-02    1.0123146094e+05
    2.5688380003e-02    1.0120964844e+05
    2.5708526373e-02    1.0120338281e+05
    2.5728661567e-02    1.0120703906e+05
    2.5748789310e-02    1.0121450000e+05
    2.5768904015e-02    1.0123427344e+05
    2.5789011270e-02    1.0126209375e+05
    2.5809109211e-02    1.0128733594e+05
    2.5829195976e-02    1.0131571094e+05
    2.5849273428e-02    1.0134718750e+05
    2.5869343430e-02    1.0138871094e+05
    2.5889402255e-02    1.0142810156e+05
    2.5909451768e-02    1.0146828906e+05
    2.5929493830e-02    1.0151456250e+05
    2.5949522853e-02    1.0155166406e+05
    2.5969544426e-02    1.0159158594e+05
    2.5989556685e-02    1.0162127344e+05
    2.6009559631e-02    1.0165519531e+05
    2.6029553264e-02    1.0167719531e+05
    2.6049537584e-02    1.0170891406e+05
    2.6069512591e-02    1.0173533594e+05
    2.6089478284e-02    1.0175931250e+05
    2.6109432802e-02    1.0177591406e+05
    2.6129379869e-02    1.0178783594e+05
    2.6149315760e-02    1.0179960156e+05
    2.6169244200e-02    1.0180977344e+05
    2.6189163327e-02    1.0181131250e+05
    2.6209073141e-02    1.0181156250e+05
    2.6228975505e-02    1.0181481250e+05
    2.6248866692e-02    1.0181660156e+05
    2.6268748567e-02    1.0181136719e+05
    2.6288621128e-02    1.0180890625e+05
    2.6308484375e-02    1.0180506250e+05
    2.6328338310e-02    1.0180088281e+05
    2.6348184794e-02    1.0179425781e+05
    2.6368021965e-02    1.0178886719e+05
    2.6387847960e-02    1.0178596094e+05
    2.6407664642e-02    1.0177691406e+05
    2.6427472010e-02    1.0176683594e+05
    2.6447271928e-02    1.0175793750e+05
    2.6467062533e-02    1.0174577344e+05
    2.6486843824e-02    1.0174310156e+05
    2.6506617665e-02    1.0173175781e+05
    2.6526380330e-02    1.0172540625e+05
    2.6546133682e-02    1.0171510156e+05
    2.6565877721e-02    1.0170308594e+05
    2.6585612446e-02    1.0169985156e+05
    2.6605339721e-02    1.0169540625e+05
    2.6625057682e-02    1.0169100000e+05
    2.6644766331e-02    1.0169021094e+05
    2.6664465666e-02    1.0168733594e+05
    2.6684155688e-02    1.0168587500e+05
    2.6703836396e-02    1.0167737500e+05
    2.6723509654e-02    1.0167146875e+05
    2.6743173599e-02    1.0167233594e+05
    2.6762828231e-02    1.0167664844e+05
    2.6782475412e-02    1.0167330469e+05
    2.6802113280e-02    1.0167016406e+05
    2.6821739972e-02    1.0166855469e+05
    2.6841359213e-02    1.0166722656e+05
    2.6860967278e-02    1.0166492969e+05
    2.6880569756e-02    1.0166146094e+05
    2.6900164783e-02    1.0166583594e+05
    2.6919748634e-02    1.0166325781e+05
    2.6939325035e-02    1.0165382031e+05
    2.6958892122e-02    1.0165091406e+05
    2.6978449896e-02    1.0164575000e+05
    2.6997998357e-02    1.0164389844e+05
    2.7017539367e-02    1.0164097656e+05
    2.7037071064e-02    1.0163940625e+05
    2.7056595311e-02    1.0163692969e+05
    2.7076110244e-02    1.0163462500e+05
    2.7095617726e-02    1.0163822656e+05
    2.7115115896e-02    1.0163992969e+05
    2.7134604752e-02    1.0163818750e+05
    2.7154086158e-02    1.0163640625e+05
    2.7173558250e-02    1.0163474219e+05
    2.7193021029e-02    1.0163531250e+05
    2.7212476358e-02    1.0163155469e+05
    2.7231922373e-02    1.0163222656e+05
    2.7251357213e-02    1.0163553906e+05
    2.7270786464e-02    1.0163553125e+05
    2.7290204540e-02    1.0163578906e+05
    2.7309613302e-02    1.0163510156e+05
    2.7329014614e-02    1.0164171094e+05
    2.7348404750e-02    1.0164386719e+05
    2.7367785573e-02    1.0164403906e+05
    2.7387158945e-02    1.0164467969e+05
    2.7406521142e-02    1.0165503125e+05
    2.7425874025e-02    1.0165671094e+05
    2.7445219457e-02    1.0166425000e+05
    2.7464553714e-02    1.0167233594e+05
    2.7483878657e-02    1.0167485156e+05
    2.7503194287e-02    1.0167753906e+05
    2.7522502467e-02    1.0168169531e+05
    2.7541799471e-02    1.0169552344e+05
    2.7561087161e-02    1.0169968750e+05
    2.7580365539e-02    1.0171577344e+05
    2.7599634603e-02    1.0171971094e+05
    2.7618894354e-02    1.0172496094e+05
    2.7638144791e-02    1.0173027344e+05
    2.7657385916e-02    1.0173665625e+05
    2.7676619589e-02    1.0174171094e+05
    2.7695843950e-02    1.0174330469e+05
    2.7715058997e-02    1.0174928125e+05
    2.7734262869e-02    1.0175647656e+05
    2.7753459290e-02    1.0176147656e+05
    2.7772648260e-02    1.0176538281e+05
    2.7791827917e-02    1.0177386719e+05
    2.7810998261e-02    1.0177278906e+05
    2.7830159292e-02    1.0177866406e+05
    2.7849311009e-02    1.0178331250e+05
    2.7868455276e-02    1.0178780469e+05
    2.7887590230e-02    1.0179216406e+05
    2.7906717733e-02    1.0179287500e+05
    2.7925835922e-02    1.0179327344e+05
    2.7944946662e-02    1.0179563281e+05
    2.7964048088e-02    1.0179303125e+05
    2.7983140200e-02    1.0179503906e+05
    2.8002224863e-02    1.0179808594e+05
    2.8021300212e-02    1.0180113281e+05
    2.8040368110e-02    1.0180411719e+05
    2.8059426695e-02    1.0180697656e+05
    2.8078475967e-02    1.0180846094e+05
    2.8097519651e-02    1.0181077344e+05
    2.8116554022e-02    1.0180590625e+05
    2.8135580942e-02    1.0180518750e+05
    2.8154598549e-02    1.0180447656e+05
    2.8173606843e-02    1.0181528906e+05
    2.8192607686e-02    1.0180537500e+05
    2.8211599216e-02    1.0180887500e+05
    2.8230583295e-02    1.0180719531e+05
    2.8249559924e-02    1.0179809375e+05
    2.8268527240e-02    1.0179537500e+05
    2.8287487105e-02    1.0179725781e+05
    2.8306435794e-02    1.0179471094e+05
    2.8325378895e-02    1.0180500000e+05
    2.8344312683e-02    1.0180422656e+05
    2.8363237157e-02    1.0180210156e+05
    2.8382156044e-02    1.0179482031e+05
    2.8401065618e-02    1.0178928906e+05
    2.8419965878e-02    1.0178819531e+05
    2.8438858688e-02    1.0178721875e+05
    2.8457742184e-02    1.0179347656e+05
    2.8476616368e-02    1.0179303906e+05
    2.8495483100e-02    1.0179164844e+05
    2.8514338657e-02    1.0179167969e+05
    2.8533160686e-02    1.0179310156e+05
    2.8551930562e-02    1.0179577344e+05
    2.8570635244e-02    1.0179530469e+05
    2.8589271009e-02    1.0179603125e+05
    2.8607837856e-02    1.0180010156e+05
    2.8626350686e-02    1.0179839844e+05
    2.8644818813e-02    1.0179883594e+05
    2.8663259000e-02    1.0179921094e+05
    2.8681686148e-02    1.0180078125e+05
    2.8700113297e-02    1.0180462500e+05
    2.8718546033e-02    1.0180519531e+05
    2.8736986220e-02    1.0180358594e+05
    2.8755431995e-02    1.0180431250e+05
    2.8773877770e-02    1.0181189844e+05
    2.8792314231e-02    1.0181547656e+05
    2.8810730204e-02    1.0182166406e+05
    2.8829116374e-02    1.0182208594e+05
    2.8847465292e-02    1.0182246094e+05
    2.8865773231e-02    1.0181724219e+05
    2.8884036466e-02    1.0181981250e+05
    2.8902258724e-02    1.0182934375e+05
    2.8920443729e-02    1.0183110156e+05
    2.8938598931e-02    1.0183291406e+05
    2.8956729919e-02    1.0183472656e+05
    2.8974846005e-02    1.0183889844e+05
    2.8992949054e-02    1.0184081250e+05
    2.9011042789e-02    1.0184039844e+05
    2.9029129073e-02    1.0184231250e+05
    2.9047204182e-02    1.0184662500e+05
    2.9065268114e-02    1.0184864844e+05
    2.9083315283e-02    1.0184950000e+05
    2.9101338238e-02    1.0185028125e+05
    2.9119335115e-02    1.0185214844e+05
    2.9137304053e-02    1.0185402344e+05
    2.9155241325e-02    1.0185586719e+05
    2.9173148796e-02    1.0185653906e+05
    2.9191024601e-02    1.0185939844e+05
    2.9208874330e-02    1.0185860156e+05
    2.9226697981e-02    1.0185291406e+05
    2.9244501144e-02    1.0185191406e+05
    2.9262285680e-02    1.0185789844e+05
    2.9280053452e-02    1.0185425781e+05
    2.9297806323e-02    1.0185539844e+05
    2.9315544292e-02    1.0186116406e+05
    2.9333265498e-02    1.0185627344e+05
    2.9350971803e-02    1.0185722656e+05
    2.9368655756e-02    1.0185700781e+05
    2.9386319220e-02    1.0186257031e+05
    2.9403960332e-02    1.0186396875e+05
    2.9421577230e-02    1.0186047656e+05
    2.9439168051e-02    1.0186152344e+05
    2.9456734657e-02    1.0186358594e+05
    2.9474277049e-02    1.0186439844e+05
    2.9491795227e-02    1.0186391406e+05
    2.9509292915e-02    1.0186446094e+05
    2.9526771978e-02    1.0186264844e+05
    2.9544232413e-02    1.0186308594e+05
    2.9561674222e-02    1.0186578125e+05
    2.9579099268e-02    1.0186160156e+05
    2.9596509412e-02    1.0186166406e+05
    2.9613900930e-02    1.0185814844e+05
    2.9631273821e-02    1.0186137500e+05
    2.9648626223e-02    1.0186732031e+05
    2.9665958136e-02    1.0186752344e+05
    2.9683271423e-02    1.0186671094e+05
    2.9700560495e-02    1.0186933594e+05
    2.9717829078e-02    1.0186971875e+05
    2.9735075310e-02    1.0187008594e+05
    2.9752301052e-02    1.0187028906e+05
    2.9769508168e-02    1.0185899219e+05
    2.9786696658e-02    1.0185908594e+05
    2.9803866521e-02    1.0186871875e+05
    2.9821017757e-02    1.0187158594e+05
    2.9838152230e-02    1.0187246094e+05
    2.9855269939e-02    1.0187339844e+05
    2.9872370884e-02    1.0187539844e+05
    2.9889453202e-02    1.0187493750e+05
    2.9906518757e-02    1.0187566406e+05
    2.9923565686e-02    1.0187630469e+05
    2.9940593988e-02    1.0187688281e+05
    2.9957601801e-02    1.0187735156e+05
    2.9974590987e-02    1.0187652344e+05
    2.9991561547e-02    1.0186871094e+05
    3.0008511618e-02    1.0186785156e+05
    3.0025444925e-02    1.0186922656e+05
    3.0042361468e-02    1.0186950781e+05
    3.0059259385e-02    1.0187685156e+05
    3.0076142401e-02    1.0187961719e+05
    3.0093006790e-02    1.0187897656e+05
    3.0109854415e-02    1.0188055469e+05
    3.0126683414e-02    1.0187622656e+05
    3.0143497512e-02    1.0187205469e+05
    3.0160292983e-02    1.0188181250e+05
    3.0177071691e-02    1.0188253125e+05
    3.0193833634e-02    1.0188444531e+05
    3.0210576952e-02    1.0188400781e+05
    3.0227303505e-02    1.0188460156e+05
    3.0244011432e-02    1.0188150781e+05
    3.0260702595e-02    1.0188296875e+05
    3.0277376994e-02    1.0187862500e+05
    3.0294034630e-02    1.0187902344e+05
    3.0310675502e-02    1.0188041406e+05
    3.0327299610e-02    1.0187732031e+05
    3.0343905091e-02    1.0188722656e+05
    3.0360495672e-02    1.0189046094e+05
    3.0377071351e-02    1.0189134375e+05
    3.0393628404e-02    1.0188756250e+05
    3.0410168692e-02    1.0188378125e+05
    3.0426690355e-02    1.0189150781e+05
    3.0443195254e-02    1.0189457031e+05
    3.0459685251e-02    1.0189291406e+05
    3.0476156622e-02    1.0188560156e+05
    3.0492611229e-02    1.0189660156e+05
    3.0509050936e-02    1.0189739844e+05
    3.0525473878e-02    1.0189831250e+05
    3.0541881919e-02    1.0189928906e+05
    3.0558273196e-02    1.0190035156e+05
    3.0574647710e-02    1.0190147656e+05
    3.0591005459e-02    1.0190489844e+05
    3.0607348308e-02    1.0190608594e+05
    3.0623674393e-02    1.0190625000e+05
    3.0639985576e-02    1.0190896094e+05
    3.0656279996e-02    1.0191196094e+05
    3.0672557652e-02    1.0191624219e+05
    3.0688818544e-02    1.0191922656e+05
    3.0705062672e-02    1.0192572656e+05
    3.0721291900e-02    1.0192303125e+05
    3.0737506226e-02    1.0192269531e+05
    3.0753703788e-02    1.0192815625e+05
    3.0769886449e-02    1.0193371094e+05
    3.0786054209e-02    1.0193346875e+05
    3.0802207068e-02    1.0193553906e+05
    3.0818343163e-02    1.0193763281e+05
    3.0834466219e-02    1.0193880469e+05
    3.0850572512e-02    1.0194493750e+05
    3.0866663903e-02    1.0195446094e+05
    3.0882738531e-02    1.0195741406e+05
    3.0898798257e-02    1.0196046094e+05
    3.0914843082e-02    1.0196356250e+05
    3.0930871144e-02    1.0196660156e+05
    3.0946886167e-02    1.0196747656e+05
    3.0962884426e-02    1.0197294531e+05
    3.0978867784e-02    1.0197393750e+05
    3.0994836241e-02    1.0197839844e+05
    3.1010789797e-02    1.0198505469e+05
    3.1026728451e-02    1.0199083594e+05
    3.1042650342e-02    1.0198988281e+05
    3.1058559194e-02    1.0199341406e+05
    3.1074455008e-02    1.0199933594e+05
    3.1090334058e-02    1.0200283594e+05
    3.1106200069e-02    1.0200511719e+05
    3.1122051179e-02    1.0200832031e+05
    3.1137887388e-02    1.0200768750e+05
    3.1153710559e-02    1.0200580469e+05
    3.1169516966e-02    1.0200806250e+05
    3.1185310334e-02    1.0200546094e+05
    3.1201090664e-02    1.0200114844e+05
    3.1216854230e-02    1.0200127344e+05
    3.1232602894e-02    1.0200231250e+05
    3.1248336658e-02    1.0200092969e+05
    3.1264055520e-02    1.0199446875e+05
    3.1279761344e-02    1.0199703906e+05
    3.1295452267e-02    1.0198789844e+05
    3.1311132014e-02    1.0198733594e+05
    3.1326796860e-02    1.0198189844e+05
    3.1342446804e-02    1.0197346094e+05
    3.1358085573e-02    1.0197157031e+05
    3.1373709440e-02    1.0196246094e+05
    3.1389318407e-02    1.0195515625e+05
    3.1404916197e-02    1.0195216406e+05
    3.1420499086e-02    1.0194450000e+05
    3.1436067075e-02    1.0193621875e+05
    3.1451620162e-02    1.0193119531e+05
    3.1467158347e-02    1.0192818750e+05
    3.1482685357e-02    1.0192041406e+05
    3.1498193741e-02    1.0191246094e+05
    3.1513694674e-02    1.0190783594e+05
    3.1529176980e-02    1.0190778906e+05
    3.1544648111e-02    1.0190241406e+05
    3.1560108066e-02    1.0190091406e+05
    3.1575553119e-02    1.0190549219e+05
    3.1590986997e-02    1.0190269531e+05
    3.1606405973e-02    1.0190971094e+05
    3.1621813774e-02    1.0191746094e+05
    3.1637206674e-02    1.0191669531e+05
    3.1652588397e-02    1.0192568750e+05
    3.1667951494e-02    1.0192853906e+05
    3.1683307141e-02    1.0193639844e+05
    3.1698647887e-02    1.0194721094e+05
    3.1713977456e-02    1.0195152344e+05
    3.1729292125e-02    1.0195153906e+05
    3.1744595617e-02    1.0196082031e+05
    3.1759884208e-02    1.0196843750e+05
    3.1775161624e-02    1.0197282031e+05
    3.1790427864e-02    1.0197982031e+05
    3.1805675477e-02    1.0199097656e+05
    3.1820915639e-02    1.0199553906e+05
    3.1836140901e-02    1.0200746094e+05
    3.1851354986e-02    1.0201277344e+05
    3.1866557896e-02    1.0202284375e+05
    3.1881745905e-02    1.0202846094e+05
    3.1896922737e-02    1.0203400781e+05
    3.1912088394e-02    1.0203949219e+05
    3.1927239150e-02    1.0204258594e+05
    3.1942378730e-02    1.0204782031e+05
    3.1957507133e-02    1.0205314844e+05
    3.1972620636e-02    1.0205958594e+05
    3.1987726688e-02    1.0206382031e+05
    3.2002814114e-02    1.0207132031e+05
    3.2017890364e-02    1.0207053906e+05
    3.2032959163e-02    1.0207650000e+05
    3.2048013061e-02    1.0207653125e+05
    3.2063052058e-02    1.0207711719e+05
    3.2078083605e-02    1.0207516406e+05
    3.2093103975e-02    1.0207864844e+05
    3.2108109444e-02    1.0208193750e+05
    3.2123107463e-02    1.0208387500e+05
    3.2138090581e-02    1.0208564844e+05
    3.2153062522e-02    1.0207921094e+05
    3.2168023288e-02    1.0208184375e+05
    3.2182972878e-02    1.0208446094e+05
    3.2197911292e-02    1.0208694531e+05
    3.2212834805e-02    1.0209157031e+05
    3.2227750868e-02    1.0209014844e+05
    3.2242652029e-02    1.0208650781e+05
    3.2257542014e-02    1.0208818750e+05
    3.2272424549e-02    1.0208971094e+05
    3.2287292182e-02    1.0209099219e+05
    3.2302148640e-02    1.0208975781e+05
    3.2316997647e-02    1.0209046094e+05
    3.2331831753e-02    1.0208168750e+05
    3.2346658409e-02    1.0208178125e+05
    3.2361470163e-02    1.0208391406e+05
    3.2376270741e-02    1.0207318750e+05
    3.2391063869e-02    1.0207374219e+05
    3.2405842096e-02    1.0207188281e+05
    3.2420612872e-02    1.0207118750e+05
    3.2435368747e-02    1.0206927344e+05
    3.2450113446e-02    1.0206839844e+05
    3.2464850694e-02    1.0206746094e+05
    3.2479573041e-02    1.0206646094e+05
    3.2494287938e-02    1.0206077344e+05
    3.2508991659e-02    1.0205464844e+05
    3.2523684204e-02    1.0205433594e+05
    3.2538365573e-02    1.0205181250e+05
    3.2553035766e-02    1.0205741406e+05
    3.2567698509e-02    1.0205869531e+05
    3.2582346350e-02    1.0205760156e+05
    3.2596986741e-02    1.0205644531e+05
    3.2611619681e-02    1.0204585156e+05
    3.2626237720e-02    1.0204418750e+05
    3.2640848309e-02    1.0204234375e+05
    3.2655447721e-02    1.0204035156e+05
    3.2670035958e-02    1.0203842969e+05
    3.2684613019e-02    1.0203878906e+05
    3.2699178904e-02    1.0203462500e+05
    3.2713737339e-02    1.0203283594e+05
    3.2728284597e-02    1.0203110156e+05
    3.2742820680e-02    1.0202840625e+05
    3.2757349312e-02    1.0203049219e+05
    3.2771866769e-02    1.0203608594e+05
    3.2786373049e-02    1.0203471094e+05
    3.2800871879e-02    1.0202428906e+05
    3.2815355808e-02    1.0202514844e+05
    3.2829832286e-02    1.0202371094e+05
    3.2844301313e-02    1.0201989844e+05
    3.2858755440e-02    1.0202058594e+05
    3.2873202115e-02    1.0201666406e+05
    3.2887637615e-02    1.0201503906e+05
    3.2902065665e-02    1.0201456250e+05
    3.2916482538e-02    1.0201191406e+05
    3.2930891961e-02    1.0201053906e+05
    3.2945290208e-02    1.0201166406e+05
    3.2959677279e-02    1.0201984375e+05
    3.2974056900e-02    1.0201903125e+05
    3.2988425344e-02    1.0201596094e+05
    3.3002786338e-02    1.0200818750e+05
    3.3017136157e-02    1.0201196094e+05
    3.3031478524e-02    1.0201469531e+05
    3.3045809716e-02    1.0201521094e+05
    3.3060129732e-02    1.0201477344e+05
    3.3074442297e-02    1.0201450781e+05
    3.3088747412e-02    1.0201453125e+05
    3.3103041351e-02    1.0201602344e+05
    3.3117324114e-02    1.0202693750e+05
    3.3131599426e-02    1.0202785156e+05
    3.3145863563e-02    1.0202882031e+05
    3.3160120249e-02    1.0202994531e+05
    3.3174365759e-02    1.0203000781e+05
    3.3188603818e-02    1.0203239844e+05
    3.3202830702e-02    1.0203364844e+05
    3.3217050135e-02    1.0203477344e+05
    3.3231258392e-02    1.0203578906e+05
    3.3245459199e-02    1.0203437500e+05
    3.3259648830e-02    1.0203510156e+05
    3.3273831010e-02    1.0203567969e+05
    3.3288005739e-02    1.0203624219e+05
    3.3302169293e-02    1.0203897656e+05
    3.3316325396e-02    1.0203822656e+05
    3.3330474049e-02    1.0203744531e+05
    3.3344611526e-02    1.0203760156e+05
    3.3358741552e-02    1.0202841406e+05
    3.3372864127e-02    1.0202846875e+05
    3.3386975527e-02    1.0203763281e+05
    3.3401079476e-02    1.0203544531e+05
    3.3415172249e-02    1.0203328906e+05
    3.3429257572e-02    1.0203560156e+05
    3.3443335444e-02    1.0202646094e+05
    3.3457405865e-02    1.0202500781e+05
    3.3471468836e-02    1.0202833594e+05
    3.3485524356e-02    1.0202816406e+05
    3.3499568701e-02    1.0202550000e+05
    3.3513605595e-02    1.0202525781e+05
    3.3527631313e-02    1.0202488281e+05
    3.3541653305e-02    1.0202322656e+05
    3.3555664122e-02    1.0202146094e+05
    3.3569667488e-02    1.0202083594e+05
    3.3583663404e-02    1.0202021094e+05
    3.3597648144e-02    1.0201964844e+05
    3.3611625433e-02    1.0201906250e+05
    3.3625595272e-02    1.0201838281e+05
    3.3639557660e-02    1.0201771094e+05
    3.3653512597e-02    1.0201685156e+05
    3.3667460084e-02    1.0201594531e+05
    3.3681396395e-02    1.0201489844e+05
    3.3695328981e-02    1.0201372656e+05
    3.3709254116e-02    1.0201238281e+05
    3.3723168075e-02    1.0200391406e+05
    3.3737078309e-02    1.0200228906e+05
    3.3750977367e-02    1.0199837500e+05
    3.3764872700e-02    1.0199674219e+05
    3.3778760582e-02    1.0200221094e+05
    3.3792637289e-02    1.0200090625e+05
    3.3806510270e-02    1.0199959375e+05
    3.3820372075e-02    1.0199487500e+05
    3.3834230155e-02    1.0199122656e+05
    3.3848077059e-02    1.0198888281e+05
    3.3861916512e-02    1.0199696094e+05
    3.3875752240e-02    1.0199600000e+05
    3.3889576793e-02    1.0199503906e+05
    3.3903393894e-02    1.0199524219e+05
    3.3917203546e-02    1.0199547656e+05
    3.3931009471e-02    1.0199459375e+05
    3.3944804221e-02    1.0199136719e+05
    3.3958595246e-02    1.0198814844e+05
    3.3972378820e-02    1.0199427344e+05
    3.3986151218e-02    1.0198875781e+05
    3.3999919891e-02    1.0198660156e+05
    3.4013681114e-02    1.0197999219e+05
    3.4027434886e-02    1.0198817969e+05
    3.4041177481e-02    1.0198752344e+05
    3.4054916352e-02    1.0198800000e+05
    3.4068647772e-02    1.0198860156e+05
    3.4082375467e-02    1.0198807031e+05
    3.4096091986e-02    1.0198753906e+05
    3.4109804779e-02    1.0198811719e+05
    3.4123510122e-02    1.0198168750e+05
    3.4137208015e-02    1.0198110156e+05
    3.4150898457e-02    1.0198753906e+05
    3.4164581448e-02    1.0198464844e+05
    3.4178260714e-02    1.0197484375e+05
    3.4191932529e-02    1.0197643750e+05
    3.4205596894e-02    1.0197583594e+05
    3.4219253808e-02    1.0197638281e+05
    3.4232903272e-02    1.0197703906e+05
    3.4246545285e-02    1.0197892969e+05
    3.4260183573e-02    1.0197630469e+05
    3.4273810685e-02    1.0197839844e+05
    3.4287434071e-02    1.0197564844e+05
    3.4301050007e-02    1.0197050000e+05
    3.4314658493e-02    1.0197343750e+05
    3.4328263253e-02    1.0196958594e+05
    3.4341860563e-02    1.0196911719e+05
    3.4355450422e-02    1.0197412500e+05
    3.4369036555e-02    1.0196893750e+05
    3.4382611513e-02    1.0196683594e+05
    3.4396182746e-02    1.0196561719e+05
    3.4409742802e-02    1.0195932031e+05
    3.4423299134e-02    1.0195303906e+05
    3.4436848015e-02    1.0194999219e+05
    3.4450393170e-02    1.0194921094e+05
    3.4463927150e-02    1.0194739844e+05
    3.4477461129e-02    1.0195050000e+05
    3.4490987659e-02    1.0195366406e+05
    3.4504506737e-02    1.0195022656e+05
    3.4518022090e-02    1.0195146875e+05
    3.4531529993e-02    1.0195161719e+05
    3.4545030445e-02    1.0194950781e+05
    3.4558523446e-02    1.0194847656e+05
    3.4572008997e-02    1.0194725781e+05
    3.4585487098e-02    1.0194358594e+05
    3.4598957747e-02    1.0194077344e+05
    3.4612424672e-02    1.0193100781e+05
    3.4625884145e-02    1.0192784375e+05
    3.4639336169e-02    1.0192685156e+05
    3.4652780741e-02    1.0192468750e+05
    3.4666225314e-02    1.0192371094e+05
    3.4679658711e-02    1.0192159375e+05
    3.4693088382e-02    1.0192069531e+05
    3.4706510603e-02    1.0191885156e+05
    3.4719929099e-02    1.0192178906e+05
    3.4733340144e-02    1.0192500781e+05
    3.4746743739e-02    1.0192377344e+05
    3.4760143608e-02    1.0192143750e+05
    3.4773536026e-02    1.0192017969e+05
    3.4786924720e-02    1.0191878906e+05
    3.4800305963e-02    1.0191628906e+05
    3.4813679755e-02    1.0191027344e+05
    3.4827046096e-02    1.0190425781e+05
    3.4840408713e-02    1.0190508594e+05
    3.4853763878e-02    1.0190491406e+05
    3.4867111593e-02    1.0190234375e+05
    3.4880455583e-02    1.0190216406e+05
    3.4893795848e-02    1.0190658594e+05
    3.4907124937e-02    1.0190775781e+05
    3.4920454025e-02    1.0190778906e+05
    3.4933775663e-02    1.0190552344e+05
    3.4947093576e-02    1.0190314844e+05
    3.4960404038e-02    1.0190290625e+05
    3.4973710775e-02    1.0189114844e+05
    3.4987010062e-02    1.0189080469e+05
endcurve
