Curveplot
LS-DYNA keyword deck by LS-PrePost                          
Time
Pressure
Defined Connection
Pressure @ 94 #pts=1745
* Minval=     9.9667570312e+04 at time=         0.0171175115
* Maxval=     1.6599926562e+05 at time=         0.0081932731
    0.0000000000e+00    9.9998710938e+04
    3.3812357287e-05    9.9998710938e+04
    6.1326652940e-05    9.9998906250e+04
    8.9102875791e-05    9.9998914062e+04
    1.1682785407e-04    9.9998851562e+04
    1.4461828687e-04    9.9998898438e+04
    1.7236733402e-04    9.9999226562e+04
    2.0016246708e-04    9.9999656250e+04
    2.2795486439e-04    1.0000016406e+05
    2.5574557367e-04    1.0000074219e+05
    2.8353667585e-04    1.0000364844e+05
    3.1133697485e-04    1.0000194531e+05
    3.3912662184e-04    1.0000217969e+05
    3.6691734567e-04    9.9995289062e+04
    3.9470891352e-04    1.0000180469e+05
    4.2249175021e-04    1.0000156250e+05
    4.5027161832e-04    9.9999210938e+04
    4.7804549104e-04    9.9999101562e+04
    5.0581363030e-04    1.0000168750e+05
    5.3357944125e-04    1.0000177344e+05
    5.6134146871e-04    9.9992164062e+04
    5.8909942163e-04    1.0000085156e+05
    6.1685312539e-04    9.9998617188e+04
    6.4460188150e-04    1.0000103906e+05
    6.7234638846e-04    1.0000125000e+05
    7.0008635521e-04    1.0000380469e+05
    7.2782178177e-04    1.0000181250e+05
    7.5555208605e-04    9.9999476562e+04
    7.8327720985e-04    9.9999273438e+04
    8.1099680392e-04    1.0000164844e+05
    8.3871174138e-04    9.9999226562e+04
    8.6642213864e-04    1.0000124219e+05
    8.9412782108e-04    1.0000131250e+05
    9.2182843946e-04    1.0000128906e+05
    9.4952445943e-04    1.0000132031e+05
    9.7721535712e-04    1.0000014844e+05
    1.0049008997e-03    9.9995289062e+04
    1.0325826006e-03    1.0000069531e+05
    1.0602590628e-03    9.9999750000e+04
    1.0879321489e-03    1.0000142969e+05
    1.1155996472e-03    1.0000182031e+05
    1.1432634201e-03    9.9999617188e+04
    1.1709230021e-03    9.9992539062e+04
    1.1985785095e-03    9.9996476562e+04
    1.2262313394e-03    1.0000102344e+05
    1.2538790470e-03    1.0000867969e+05
    1.2815232622e-03    1.0000657031e+05
    1.3091630535e-03    1.0000214844e+05
    1.3368004002e-03    1.0000621094e+05
    1.3644339051e-03    1.0000802344e+05
    1.3920635683e-03    1.0002209375e+05
    1.4196902048e-03    1.0005272656e+05
    1.4473132323e-03    1.0010277344e+05
    1.4749332331e-03    1.0019412500e+05
    1.5025498578e-03    1.0032563281e+05
    1.5301633393e-03    1.0052250000e+05
    1.5577742597e-03    1.0077383594e+05
    1.5853822697e-03    1.0109635156e+05
    1.6129877185e-03    1.0146452344e+05
    1.6405890929e-03    1.0186534375e+05
    1.6681876732e-03    1.0224874219e+05
    1.6957829939e-03    1.0259422656e+05
    1.7233766848e-03    1.0287184375e+05
    1.7509678146e-03    1.0305300000e+05
    1.7785291420e-03    1.0314003125e+05
    1.8060547300e-03    1.0313596875e+05
    1.8335470231e-03    1.0305346094e+05
    1.8610082334e-03    1.0291653906e+05
    1.8884401070e-03    1.0275106250e+05
    1.9158447394e-03    1.0257278125e+05
    1.9432241097e-03    1.0241687500e+05
    1.9705800805e-03    1.0230078906e+05
    1.9979148638e-03    1.0222338281e+05
    2.0252298564e-03    1.0219449219e+05
    2.0525271539e-03    1.0221439844e+05
    2.0798076876e-03    1.0227053906e+05
    2.1070730872e-03    1.0234496094e+05
    2.1343247499e-03    1.0241896094e+05
    2.1615643054e-03    1.0248075781e+05
    2.1887931507e-03    1.0252364844e+05
    2.2160108201e-03    1.0254271094e+05
    2.2432196420e-03    1.0254212500e+05
    2.2704207804e-03    1.0251528906e+05
    2.2976147011e-03    1.0247939844e+05
    2.3248014040e-03    1.0243902344e+05
    2.3519827519e-03    1.0241236719e+05
    2.3791582789e-03    1.0239246094e+05
    2.4063293822e-03    1.0238933594e+05
    2.4334960617e-03    1.0239305469e+05
    2.4606597144e-03    1.0239925781e+05
    2.4878205732e-03    1.0240766406e+05
    2.5149781723e-03    1.0242416406e+05
    2.5421329774e-03    1.0243691406e+05
    2.5692859199e-03    1.0244728125e+05
    2.5964374654e-03    1.0244571875e+05
    2.6235871483e-03    1.0244646875e+05
    2.6507352013e-03    1.0243639844e+05
    2.6778825559e-03    1.0243333594e+05
    2.7050296776e-03    1.0242056250e+05
    2.7321761008e-03    1.0241624219e+05
    2.7593218256e-03    1.0241421094e+05
    2.7864677832e-03    1.0242093750e+05
    2.8136142064e-03    1.0242222656e+05
    2.8407603968e-03    1.0243350000e+05
    2.8679079842e-03    1.0244647656e+05
    2.8950548731e-03    1.0246021094e+05
    2.9222022276e-03    1.0248481250e+05
    2.9493502807e-03    1.0252366406e+05
    2.9764990322e-03    1.0257803906e+05
    3.0036487151e-03    1.0263934375e+05
    3.0307997949e-03    1.0271393750e+05
    3.0579508748e-03    1.0281708594e+05
    3.0851035845e-03    1.0291853125e+05
    3.1122572254e-03    1.0302666406e+05
    3.1394117977e-03    1.0311900000e+05
    3.1665677670e-03    1.0320505469e+05
    3.1937246677e-03    1.0325913281e+05
    3.2208829653e-03    1.0330071094e+05
    3.2480424270e-03    1.0330278906e+05
    3.2752046827e-03    1.0329240625e+05
    3.2952371985e-03    1.0325571094e+05
    3.3145032357e-03    1.0322681250e+05
    3.3336398192e-03    1.0319133594e+05
    3.3528339118e-03    1.0314933594e+05
    3.3720366191e-03    1.0310106250e+05
    3.3912549261e-03    1.0305632031e+05
    3.4104890656e-03    1.0301583594e+05
    3.4297339153e-03    1.0297099219e+05
    3.4486323129e-03    1.0293135156e+05
    3.4671388566e-03    1.0288091406e+05
    3.4854323603e-03    1.0283139844e+05
    3.5036695190e-03    1.0277113281e+05
    3.5219141282e-03    1.0270667969e+05
    3.5401545465e-03    1.0263802344e+05
    3.5583588760e-03    1.0256522656e+05
    3.5765271168e-03    1.0249133594e+05
    3.5946895368e-03    1.0242655469e+05
    3.6139658187e-03    1.0236760156e+05
    3.6330535077e-03    1.0232425781e+05
    3.6521453876e-03    1.0228221875e+05
    3.6699753255e-03    1.0225362500e+05
    3.6875614896e-03    1.0223240625e+05
    3.7050142419e-03    1.0221589844e+05
    3.7224807311e-03    1.0219692969e+05
    3.7400643341e-03    1.0217991406e+05
    3.7577797193e-03    1.0216696094e+05
    3.7755726371e-03    1.0215121875e+05
    3.7933769636e-03    1.0214421875e+05
    3.8111612666e-03    1.0213453125e+05
    3.8289318327e-03    1.0212672656e+05
    3.8467168342e-03    1.0212516406e+05
    3.8645383902e-03    1.0212271094e+05
    3.8824023213e-03    1.0211655469e+05
    3.9002960548e-03    1.0210407031e+05
    3.9182156324e-03    1.0209174219e+05
    3.9361710660e-03    1.0207478125e+05
    3.9541716687e-03    1.0205763281e+05
    3.9733103476e-03    1.0203339844e+05
    3.9924201556e-03    1.0201357031e+05
    4.0104058571e-03    1.0199625781e+05
    4.0284004062e-03    1.0198890625e+05
    4.0464363992e-03    1.0198025781e+05
    4.0656095371e-03    1.0197275781e+05
    4.0847789496e-03    1.0197217969e+05
    4.1039343923e-03    1.0196241406e+05
    4.1219722480e-03    1.0195889844e+05
    4.1400394402e-03    1.0194757031e+05
    4.1591953486e-03    1.0194091406e+05
    4.1784178466e-03    1.0193425781e+05
    4.1976389475e-03    1.0192286719e+05
    4.2168586515e-03    1.0191047656e+05
    4.2360713705e-03    1.0190294531e+05
    4.2552771047e-03    1.0189800781e+05
    4.2744791135e-03    1.0188839844e+05
    4.2936825193e-03    1.0187725781e+05
    4.3128933758e-03    1.0186784375e+05
    4.3321144767e-03    1.0185285156e+05
    4.3513495475e-03    1.0183753906e+05
    4.3705995195e-03    1.0181808594e+05
    4.3898657896e-03    1.0180108594e+05
    4.4091497548e-03    1.0177950781e+05
    4.4284537435e-03    1.0175121094e+05
    4.4477786869e-03    1.0171924219e+05
    4.4671236537e-03    1.0167793750e+05
    4.4864914380e-03    1.0163071875e+05
    4.5058806427e-03    1.0156733594e+05
    4.5252908021e-03    1.0148716406e+05
    4.5447219163e-03    1.0140582031e+05
    4.5641721226e-03    1.0130971094e+05
    4.5836409554e-03    1.0120830469e+05
    4.6031279489e-03    1.0110240625e+05
    4.6226321720e-03    1.0098621094e+05
    4.6421540901e-03    1.0086563281e+05
    4.6616927721e-03    1.0074696094e+05
    4.6812482178e-03    1.0062077344e+05
    4.7008208930e-03    1.0050311719e+05
    4.7204112634e-03    1.0039208594e+05
    4.7400193289e-03    1.0029927344e+05
    4.7596455552e-03    1.0023399219e+05
    4.7792894766e-03    1.0018028906e+05
    4.7989510931e-03    1.0015734375e+05
    4.8186304048e-03    1.0014755469e+05
    4.8383255489e-03    1.0015528125e+05
    4.8580355942e-03    1.0018877344e+05
    4.8777610064e-03    1.0023319531e+05
    4.8975008540e-03    1.0028681250e+05
    4.9172551371e-03    1.0034347656e+05
    4.9370229244e-03    1.0040571094e+05
    4.9568060786e-03    1.0047353906e+05
    4.9766036682e-03    1.0052894531e+05
    4.9964170903e-03    1.0057443750e+05
    5.0162458792e-03    1.0061306250e+05
    5.0360900350e-03    1.0064568750e+05
    5.0559476949e-03    1.0066475781e+05
    5.0758207217e-03    1.0067680469e+05
    5.0957072526e-03    1.0067735156e+05
    5.1156077534e-03    1.0067596094e+05
    5.1355226897e-03    1.0066875781e+05
    5.1554525271e-03    1.0065433594e+05
    5.1753963344e-03    1.0063347656e+05
    5.1953555085e-03    1.0061146094e+05
    5.2153295837e-03    1.0059835156e+05
    5.2353194915e-03    1.0058183594e+05
    5.2553247660e-03    1.0057602344e+05
    5.2753463387e-03    1.0057250781e+05
    5.2953832783e-03    1.0057128906e+05
    5.3154369816e-03    1.0058147656e+05
    5.3355065174e-03    1.0058921094e+05
    5.3555918857e-03    1.0059410156e+05
    5.3756926209e-03    1.0059996094e+05
    5.3958082572e-03    1.0061313281e+05
    5.4159392603e-03    1.0062427344e+05
    5.4360851645e-03    1.0063771875e+05
    5.4562464356e-03    1.0064864844e+05
    5.4764230736e-03    1.0065921094e+05
    5.4966160096e-03    1.0066441406e+05
    5.5168238468e-03    1.0066860156e+05
    5.5370470509e-03    1.0066953906e+05
    5.5572865531e-03    1.0066752344e+05
    5.5775423534e-03    1.0066725781e+05
    5.5978130549e-03    1.0066889844e+05
    5.6181000546e-03    1.0067038281e+05
    5.6384028867e-03    1.0068125781e+05
    5.6587206200e-03    1.0068333594e+05
    5.6790532544e-03    1.0067636719e+05
    5.6994007900e-03    1.0067875781e+05
    5.7197632268e-03    1.0067653125e+05
    5.7401410304e-03    1.0067677344e+05
    5.7605337352e-03    1.0068411719e+05
    5.7809422724e-03    1.0068966406e+05
    5.8013652451e-03    1.0069318750e+05
    5.8218040504e-03    1.0069696094e+05
    5.8422577567e-03    1.0070550781e+05
    5.8627268299e-03    1.0071227344e+05
    5.8832112700e-03    1.0071910156e+05
    5.9037101455e-03    1.0072358594e+05
    5.9242248535e-03    1.0072566406e+05
    5.9447535314e-03    1.0073202344e+05
    5.9641525149e-03    1.0073632031e+05
    5.9830932878e-03    1.0074060156e+05
    6.0020405799e-03    1.0074506250e+05
    6.0210367665e-03    1.0075315625e+05
    6.0400799848e-03    1.0076136719e+05
    6.0591096990e-03    1.0076836719e+05
    6.0781282373e-03    1.0076846094e+05
    6.0972142965e-03    1.0077058594e+05
    6.1162756756e-03    1.0078208594e+05
    6.1353649944e-03    1.0078727344e+05
    6.1544459313e-03    1.0080214844e+05
    6.1734300107e-03    1.0081072656e+05
    6.1924448237e-03    1.0082397656e+05
    6.2115197070e-03    1.0083025000e+05
    6.2306127511e-03    1.0083628906e+05
    6.2497169711e-03    1.0083760156e+05
    6.2688281760e-03    1.0084810156e+05
    6.2879407778e-03    1.0086132031e+05
    6.3070552424e-03    1.0087330469e+05
    6.3261794858e-03    1.0089314844e+05
    6.3453060575e-03    1.0090846094e+05
    6.3644465990e-03    1.0092817969e+05
    6.3835908659e-03    1.0094800000e+05
    6.4027444459e-03    1.0096965625e+05
    6.4219115302e-03    1.0099171094e+05
    6.4410855994e-03    1.0100472656e+05
    6.4602680504e-03    1.0101771094e+05
    6.4794607460e-03    1.0103064844e+05
    6.4986641519e-03    1.0104571875e+05
    6.5178787336e-03    1.0104900781e+05
    6.5371058881e-03    1.0105875781e+05
    6.5563363023e-03    1.0107027344e+05
    6.5755699761e-03    1.0106961719e+05
    6.5948092379e-03    1.0107032031e+05
    6.6140629351e-03    1.0106999219e+05
    6.6333152354e-03    1.0107322656e+05
    6.6525745206e-03    1.0107078906e+05
    6.6718445159e-03    1.0106396875e+05
    6.6911154427e-03    1.0106541406e+05
    6.7104012705e-03    1.0106507031e+05
    6.7296870984e-03    1.0106883594e+05
    6.7489854991e-03    1.0107128906e+05
    6.7682852969e-03    1.0107350781e+05
    6.7875892855e-03    1.0107409375e+05
    6.8069072440e-03    1.0107190625e+05
    6.8262196146e-03    1.0106433594e+05
    6.8455408327e-03    1.0105628906e+05
    6.8648783490e-03    1.0105708594e+05
    6.8842126057e-03    1.0105799219e+05
    6.9035501219e-03    1.0105902344e+05
    6.9228983484e-03    1.0106011719e+05
    6.9422605447e-03    1.0106103906e+05
    6.9616222754e-03    1.0106153906e+05
    6.9809844717e-03    1.0105237500e+05
    7.0003494620e-03    1.0105186719e+05
    7.0197195746e-03    1.0105010156e+05
    7.0390999317e-03    1.0105297656e+05
    7.0584909990e-03    1.0105046094e+05
    7.0778946392e-03    1.0104917969e+05
    7.0973108523e-03    1.0104797656e+05
    7.1167377755e-03    1.0104794531e+05
    7.1361698210e-03    1.0105025781e+05
    7.1556069888e-03    1.0105271094e+05
    7.1750483476e-03    1.0105308594e+05
    7.1944966912e-03    1.0105133594e+05
    7.2139529511e-03    1.0106099219e+05
    7.2334166616e-03    1.0105696094e+05
    7.2528840974e-03    1.0105271875e+05
    7.2723543271e-03    1.0105286719e+05
    7.2918278165e-03    1.0105760156e+05
    7.3113050312e-03    1.0106253906e+05
    7.3307845742e-03    1.0106327344e+05
    7.3502692394e-03    1.0106646875e+05
    7.3697618209e-03    1.0106337500e+05
    7.3892641813e-03    1.0106778125e+05
    7.4087800458e-03    1.0107759375e+05
    7.4282912537e-03    1.0108407031e+05
    7.4477996677e-03    1.0108978906e+05
    7.4673094787e-03    1.0109938281e+05
    7.4868267402e-03    1.0111364844e+05
    7.5063589029e-03    1.0113327344e+05
    7.5258887373e-03    1.0115400000e+05
    7.5454111211e-03    1.0118572656e+05
    7.5649353676e-03    1.0122466406e+05
    7.5844703242e-03    1.0127371875e+05
    7.6040057465e-03    1.0132750000e+05
    7.6235276647e-03    1.0139188281e+05
    7.6430505142e-03    1.0146259375e+05
    7.6625877991e-03    1.0154399219e+05
    7.6821087860e-03    1.0163477344e+05
    7.7016241848e-03    1.0172852344e+05
    7.7211544849e-03    1.0182678125e+05
    7.7406810597e-03    1.0193563281e+05
    7.7602043748e-03    1.0204235156e+05
    7.7797495760e-03    1.0215133594e+05
    7.7992938459e-03    1.0225090625e+05
    7.8188432381e-03    1.0235464844e+05
    7.8384252265e-03    1.0244884375e+05
    7.8580006957e-03    1.0254424219e+05
    7.8775910661e-03    1.0263621094e+05
    7.8972103074e-03    1.0273961719e+05
    7.9168286175e-03    1.0287618750e+05
    7.9364804551e-03    1.0307608594e+05
    7.9561360180e-03    1.0342497656e+05
    7.9758102074e-03    1.0406149219e+05
    7.9955114052e-03    1.0523158594e+05
    8.0152126029e-03    1.0732371094e+05
    8.0349491909e-03    1.1085255469e+05
    8.0546662211e-03    1.1634478906e+05
    8.0743944272e-03    1.2404324219e+05
    8.0941170454e-03    1.3363448438e+05
    8.1138620153e-03    1.4399795312e+05
    8.1336386502e-03    1.5354315625e+05
    8.1534720957e-03    1.6075068750e+05
    8.1733558327e-03    1.6485810938e+05
    8.1932730973e-03    1.6599926562e+05
    8.2132071257e-03    1.6501510938e+05
    8.2330890000e-03    1.6287121875e+05
    8.2529615611e-03    1.6047942188e+05
    8.2727763802e-03    1.5839864062e+05
    8.2926023751e-03    1.5678154688e+05
    8.3124246448e-03    1.5552664062e+05
    8.3322748542e-03    1.5444637500e+05
    8.3521194756e-03    1.5328151562e+05
    8.3719678223e-03    1.5191498438e+05
    8.3917891607e-03    1.5027562500e+05
    8.4116021171e-03    1.4843576562e+05
    8.4314141423e-03    1.4646937500e+05
    8.4512168542e-03    1.4450107812e+05
    8.4710381925e-03    1.4262714062e+05
    8.4908353165e-03    1.4089742188e+05
    8.5106678307e-03    1.3933218750e+05
    8.5304882377e-03    1.3790173438e+05
    8.5503393784e-03    1.3658148438e+05
    8.5699046031e-03    1.3534279688e+05
    8.5892248899e-03    1.3416131250e+05
    8.6083402857e-03    1.3303204688e+05
    8.6272666231e-03    1.3196126562e+05
    8.6460309103e-03    1.3094647656e+05
    8.6646731943e-03    1.2999902344e+05
    8.6832325906e-03    1.2912391406e+05
    8.7017398328e-03    1.2832272656e+05
    8.7202098221e-03    1.2758836719e+05
    8.7386453524e-03    1.2693489844e+05
    8.7570473552e-03    1.2633303125e+05
    8.7753897533e-03    1.2577946094e+05
    8.7936492637e-03    1.2527118750e+05
    8.8118780404e-03    1.2478402344e+05
    8.8300397620e-03    1.2431565625e+05
    8.8481390849e-03    1.2385878906e+05
    8.8662039489e-03    1.2341264844e+05
    8.8842641562e-03    1.2298693750e+05
    8.9023411274e-03    1.2255621094e+05
    8.9204348624e-03    1.2214046094e+05
    8.9385388419e-03    1.2173880469e+05
    8.9566456154e-03    1.2133964844e+05
    8.9747514576e-03    1.2094828906e+05
    8.9928600937e-03    1.2055884375e+05
    9.0109808370e-03    1.2017400781e+05
    9.0291155502e-03    1.1979591406e+05
    9.0472688898e-03    1.1942625000e+05
    9.0654399246e-03    1.1906896094e+05
    9.0836230665e-03    1.1872403906e+05
    9.1018192470e-03    1.1839585156e+05
    9.1200266033e-03    1.1808703906e+05
    9.1382460669e-03    1.1780588281e+05
    9.1564757749e-03    1.1754752344e+05
    9.1747231781e-03    1.1731439844e+05
    9.1929892078e-03    1.1710571094e+05
    9.2112747952e-03    1.1691780469e+05
    9.2295790091e-03    1.1674227344e+05
    9.2479009181e-03    1.1658447656e+05
    9.2662386596e-03    1.1643924219e+05
    9.2845931649e-03    1.1630439844e+05
    9.3029672280e-03    1.1617091406e+05
    9.3213599175e-03    1.1604643750e+05
    9.3397712335e-03    1.1593625000e+05
    9.3582011759e-03    1.1582864844e+05
    9.3766497448e-03    1.1572384375e+05
    9.3951150775e-03    1.1563478125e+05
    9.4135999680e-03    1.1554797656e+05
    9.4321016222e-03    1.1546519531e+05
    9.4506228343e-03    1.1538710156e+05
    9.4691645354e-03    1.1530987500e+05
    9.4877239317e-03    1.1523039844e+05
    9.5063010231e-03    1.1515228906e+05
    9.5248948783e-03    1.1506989844e+05
    9.5435054973e-03    1.1498533594e+05
    9.5621328801e-03    1.1489627344e+05
    9.5807760954e-03    1.1480207031e+05
    9.5994332805e-03    1.1470278906e+05
    9.6181081608e-03    1.1459482031e+05
    9.6367979422e-03    1.1448496094e+05
    9.6555035561e-03    1.1437078906e+05
    9.6742231399e-03    1.1425075781e+05
    9.6929576248e-03    1.1412912500e+05
    9.7117051482e-03    1.1400916406e+05
    9.7304685041e-03    1.1388364844e+05
    9.7492448986e-03    1.1375681250e+05
    9.7680361941e-03    1.1362796094e+05
    9.7868405282e-03    1.1349962500e+05
    9.8056588322e-03    1.1336902344e+05
    9.8244920373e-03    1.1323180469e+05
    9.8433364183e-03    1.1309186719e+05
    9.8621929064e-03    1.1294696094e+05
    9.8810633644e-03    1.1280214844e+05
    9.8999459296e-03    1.1265637500e+05
    9.9188406020e-03    1.1250068750e+05
    9.9377483130e-03    1.1235336719e+05
    9.9566690624e-03    1.1220366406e+05
    9.9756028503e-03    1.1205822656e+05
    9.9945487455e-03    1.1191366406e+05
    1.0013507679e-02    1.1177093750e+05
    1.0032479651e-02    1.1163919531e+05
    1.0051463731e-02    1.1152228906e+05
    1.0070459917e-02    1.1141210156e+05
    1.0089469142e-02    1.1131875781e+05
    1.0108492337e-02    1.1123852344e+05
    1.0127528571e-02    1.1117036719e+05
    1.0146577843e-02    1.1111468750e+05
    1.0165639222e-02    1.1106155469e+05
    1.0184712708e-02    1.1101867969e+05
    1.0203798302e-02    1.1098125781e+05
    1.0222896002e-02    1.1094774219e+05
    1.0242006741e-02    1.1092539844e+05
    1.0261129588e-02    1.1090613281e+05
    1.0280264542e-02    1.1087660156e+05
    1.0299413465e-02    1.1085649219e+05
    1.0318575427e-02    1.1082928125e+05
    1.0337748565e-02    1.1079496875e+05
    1.0356934741e-02    1.1075739844e+05
    1.0376133956e-02    1.1072260156e+05
    1.0395346209e-02    1.1068458594e+05
    1.0414571501e-02    1.1064552344e+05
    1.0433809832e-02    1.1059862500e+05
    1.0453061201e-02    1.1055192969e+05
    1.0472324677e-02    1.1050289844e+05
    1.0491601191e-02    1.1045137500e+05
    1.0510892607e-02    1.1040421094e+05
    1.0530196130e-02    1.1036296094e+05
    1.0549513623e-02    1.1031764844e+05
    1.0568842292e-02    1.1027885156e+05
    1.0588183999e-02    1.1024372656e+05
    1.0607538745e-02    1.1019956250e+05
    1.0626907460e-02    1.1016093750e+05
    1.0646289214e-02    1.1011944531e+05
    1.0665684007e-02    1.1008058594e+05
    1.0685092770e-02    1.1003355469e+05
    1.0704516433e-02    1.0998919531e+05
    1.0723951273e-02    1.0993685156e+05
    1.0743400082e-02    1.0988900000e+05
    1.0762862861e-02    1.0983684375e+05
    1.0782338679e-02    1.0979106250e+05
    1.0801829398e-02    1.0973802344e+05
    1.0821334086e-02    1.0968475781e+05
    1.0840852745e-02    1.0963028125e+05
    1.0860386305e-02    1.0957597656e+05
    1.0879932903e-02    1.0951591406e+05
    1.0899493471e-02    1.0946393750e+05
    1.0919069871e-02    1.0941306250e+05
    1.0938662104e-02    1.0936317969e+05
    1.0958270170e-02    1.0931867969e+05
    1.0977892205e-02    1.0927491406e+05
    1.0997531936e-02    1.0922137500e+05
    1.1017187499e-02    1.0917624219e+05
    1.1036860757e-02    1.0912766406e+05
    1.1056551710e-02    1.0908167969e+05
    1.1076259427e-02    1.0902899219e+05
    1.1095987633e-02    1.0897649219e+05
    1.1115733534e-02    1.0892164844e+05
    1.1135498993e-02    1.0885927344e+05
    1.1155283079e-02    1.0879047656e+05
    1.1175086722e-02    1.0871868750e+05
    1.1194912717e-02    1.0864250781e+05
    1.1214758269e-02    1.0855938281e+05
    1.1234625243e-02    1.0848171094e+05
    1.1254511774e-02    1.0840364844e+05
    1.1274418794e-02    1.0832739844e+05
    1.1294347234e-02    1.0824944531e+05
    1.1314296164e-02    1.0816641406e+05
    1.1334266514e-02    1.0808160156e+05
    1.1354257353e-02    1.0800125000e+05
    1.1374268681e-02    1.0791394531e+05
    1.1394302361e-02    1.0782880469e+05
    1.1414355598e-02    1.0773866406e+05
    1.1434430256e-02    1.0765341406e+05
    1.1454525404e-02    1.0757250000e+05
    1.1474640109e-02    1.0749690625e+05
    1.1494777165e-02    1.0742224219e+05
    1.1514934711e-02    1.0735086719e+05
    1.1535113677e-02    1.0728289844e+05
    1.1555313133e-02    1.0722316406e+05
    1.1575534008e-02    1.0717402344e+05
    1.1595774442e-02    1.0711363281e+05
    1.1616035365e-02    1.0705352344e+05
    1.1636316776e-02    1.0699944531e+05
    1.1656619608e-02    1.0693050000e+05
    1.1676942930e-02    1.0686633594e+05
    1.1697287671e-02    1.0680521094e+05
    1.1717652902e-02    1.0674483594e+05
    1.1738038622e-02    1.0667765625e+05
    1.1758443899e-02    1.0660716406e+05
    1.1778870597e-02    1.0654125781e+05
    1.1799318716e-02    1.0647534375e+05
    1.1819788255e-02    1.0641303906e+05
    1.1840280145e-02    1.0635921094e+05
    1.1860790662e-02    1.0630171094e+05
    1.1881321669e-02    1.0625671875e+05
    1.1901874095e-02    1.0621178906e+05
    1.1922447011e-02    1.0617435156e+05
    1.1943042278e-02    1.0613527344e+05
    1.1963658035e-02    1.0609586719e+05
    1.1984295212e-02    1.0605369531e+05
    1.2004952878e-02    1.0601705469e+05
    1.2025631964e-02    1.0597041406e+05
    1.2046331540e-02    1.0592675000e+05
    1.2067052536e-02    1.0587690625e+05
    1.2087795883e-02    1.0582375781e+05
    1.2108558789e-02    1.0577425000e+05
    1.2129344046e-02    1.0571275000e+05
    1.2150149792e-02    1.0564587500e+05
    1.2170976959e-02    1.0557991406e+05
    1.2191825546e-02    1.0551485156e+05
    1.2212695554e-02    1.0544600000e+05
    1.2233586982e-02    1.0537260156e+05
    1.2254500762e-02    1.0530241406e+05
    1.2275436893e-02    1.0523847656e+05
    1.2296394445e-02    1.0516159375e+05
    1.2317374349e-02    1.0508446094e+05
    1.2338375673e-02    1.0500903125e+05
    1.2359398417e-02    1.0492716406e+05
    1.2380442582e-02    1.0484883594e+05
    1.2401508167e-02    1.0476722656e+05
    1.2422595173e-02    1.0468957031e+05
    1.2443703599e-02    1.0461893750e+05
    1.2464834377e-02    1.0455196875e+05
    1.2485986575e-02    1.0449547656e+05
    1.2507158332e-02    1.0444603906e+05
    1.2528351508e-02    1.0441478906e+05
    1.2549565174e-02    1.0438975781e+05
    1.2570801191e-02    1.0437134375e+05
    1.2592058629e-02    1.0436200781e+05
    1.2613337487e-02    1.0435710156e+05
    1.2634636834e-02    1.0434960156e+05
    1.2655957602e-02    1.0434208594e+05
    1.2677297927e-02    1.0432999219e+05
    1.2698660605e-02    1.0431363281e+05
    1.2720043771e-02    1.0428141406e+05
    1.2741449289e-02    1.0425046094e+05
    1.2762876227e-02    1.0421228125e+05
    1.2784325518e-02    1.0417593750e+05
    1.2805794366e-02    1.0413408594e+05
    1.2827285565e-02    1.0409178906e+05
    1.2848797254e-02    1.0405186719e+05
    1.2870330364e-02    1.0401647656e+05
    1.2891885825e-02    1.0398009375e+05
    1.2913462706e-02    1.0394371094e+05
    1.2935061008e-02    1.0391078906e+05
    1.2956679799e-02    1.0387040625e+05
    1.2978320010e-02    1.0382885156e+05
    1.2999981642e-02    1.0378628906e+05
    1.3021663763e-02    1.0374232031e+05
    1.3043368235e-02    1.0369977344e+05
    1.3065092266e-02    1.0365914844e+05
    1.3086837716e-02    1.0361737500e+05
    1.3108605519e-02    1.0358100781e+05
    1.3130392879e-02    1.0355841406e+05
    1.3152201660e-02    1.0353484375e+05
    1.3174032792e-02    1.0350939844e+05
    1.3195885345e-02    1.0349246875e+05
    1.3217759319e-02    1.0347803906e+05
    1.3239653781e-02    1.0345878125e+05
    1.3261569664e-02    1.0344071094e+05
    1.3283506967e-02    1.0341569531e+05
    1.3305463828e-02    1.0338952344e+05
    1.3327440247e-02    1.0335977344e+05
    1.3349435292e-02    1.0332618750e+05
    1.3371448033e-02    1.0330260156e+05
    1.3393475674e-02    1.0327447656e+05
    1.3415516354e-02    1.0325725000e+05
    1.3437564485e-02    1.0326489844e+05
    1.3459613547e-02    1.0329816406e+05
    1.3481658883e-02    1.0337275000e+05
    1.3503690250e-02    1.0350853906e+05
    1.3525702059e-02    1.0371685156e+05
    1.3547683135e-02    1.0402039844e+05
    1.3569628820e-02    1.0442933594e+05
    1.3591531664e-02    1.0495852344e+05
    1.3613392599e-02    1.0561597656e+05
    1.3635210693e-02    1.0640035156e+05
    1.3656994328e-02    1.0728964844e+05
    1.3678749092e-02    1.0824471094e+05
    1.3700488023e-02    1.0921472656e+05
    1.3722228818e-02    1.1014207031e+05
    1.3743981719e-02    1.1094624219e+05
    1.3765762560e-02    1.1158121094e+05
    1.3787578791e-02    1.1199215625e+05
    1.3809437864e-02    1.1217166406e+05
    1.3831341639e-02    1.1210743750e+05
    1.3853288256e-02    1.1183635156e+05
    1.3875273056e-02    1.1137477344e+05
    1.3897285797e-02    1.1077602344e+05
    1.3919321820e-02    1.1008724219e+05
    1.3941374607e-02    1.0936189844e+05
    1.3963440433e-02    1.0865253906e+05
    1.3985517435e-02    1.0800375781e+05
    1.4007603750e-02    1.0745366406e+05
    1.4029704034e-02    1.0700960156e+05
    1.4051820152e-02    1.0666396094e+05
    1.4073957689e-02    1.0638885156e+05
    1.4096121304e-02    1.0615363281e+05
    1.4118315652e-02    1.0592041406e+05
    1.4140545391e-02    1.0565702344e+05
    1.4162814245e-02    1.0535377344e+05
    1.4185124077e-02    1.0498206250e+05
    1.4207473956e-02    1.0455271875e+05
    1.4229862019e-02    1.0407658594e+05
    1.4252286404e-02    1.0357427344e+05
    1.4274741523e-02    1.0307777344e+05
    1.4297228307e-02    1.0261035156e+05
    1.4319745824e-02    1.0218803125e+05
    1.4342290349e-02    1.0183396875e+05
    1.4364863746e-02    1.0155028906e+05
    1.4387467876e-02    1.0134310156e+05
    1.4410103671e-02    1.0120324219e+05
    1.4432771131e-02    1.0112603906e+05
    1.4455472119e-02    1.0110121094e+05
    1.4478209428e-02    1.0111328125e+05
    1.4500979334e-02    1.0115264844e+05
    1.4523783699e-02    1.0120327344e+05
    1.4546621591e-02    1.0126386719e+05
    1.4569494873e-02    1.0131202344e+05
    1.4592399821e-02    1.0134391406e+05
    1.4615339227e-02    1.0135966406e+05
    1.4638305642e-02    1.0136013281e+05
    1.4661304653e-02    1.0135021875e+05
    1.4684336260e-02    1.0132646094e+05
    1.4707398601e-02    1.0129400000e+05
    1.4730494469e-02    1.0125777344e+05
    1.4753622934e-02    1.0122891406e+05
    1.4776783995e-02    1.0120664844e+05
    1.4799979515e-02    1.0118572656e+05
    1.4823205769e-02    1.0118007031e+05
    1.4846466482e-02    1.0118702344e+05
    1.4869757928e-02    1.0120772656e+05
    1.4893081971e-02    1.0123349219e+05
    1.4916437678e-02    1.0127362500e+05
    1.4939822257e-02    1.0131697656e+05
    1.4963239431e-02    1.0137797656e+05
    1.4986685477e-02    1.0143453906e+05
    1.5010161325e-02    1.0149289844e+05
    1.5033668838e-02    1.0155652344e+05
    1.5057205223e-02    1.0160922656e+05
    1.5080772340e-02    1.0165268750e+05
    1.5104367398e-02    1.0168294531e+05
    1.5127992257e-02    1.0169389844e+05
    1.5151646920e-02    1.0169519531e+05
    1.5175330453e-02    1.0169346094e+05
    1.5199041925e-02    1.0169671094e+05
    1.5222782269e-02    1.0169807031e+05
    1.5246548690e-02    1.0171052344e+05
    1.5270343982e-02    1.0173208594e+05
    1.5294168144e-02    1.0176778125e+05
    1.5318016522e-02    1.0180430469e+05
    1.5341891907e-02    1.0184265625e+05
    1.5365792438e-02    1.0188224219e+05
    1.5389721841e-02    1.0191055469e+05
    1.5413676389e-02    1.0192783594e+05
    1.5437657945e-02    1.0193985156e+05
    1.5461664647e-02    1.0193540625e+05
    1.5485695563e-02    1.0192497656e+05
    1.5509752557e-02    1.0191541406e+05
    1.5533835627e-02    1.0190511719e+05
    1.5557944775e-02    1.0189752344e+05
    1.5582079068e-02    1.0189185156e+05
    1.5606240369e-02    1.0189135156e+05
    1.5630424023e-02    1.0189527344e+05
    1.5654634684e-02    1.0189685156e+05
    1.5678871423e-02    1.0189928906e+05
    1.5703132376e-02    1.0190658594e+05
    1.5727419406e-02    1.0190683594e+05
    1.5751728788e-02    1.0190422656e+05
    1.5776060522e-02    1.0190771875e+05
    1.5800418332e-02    1.0190047656e+05
    1.5824800357e-02    1.0189543750e+05
    1.5849204734e-02    1.0188924219e+05
    1.5873633325e-02    1.0188744531e+05
    1.5898084268e-02    1.0187758594e+05
    1.5922557563e-02    1.0186531250e+05
    1.5947058797e-02    1.0184846875e+05
    1.5971582383e-02    1.0183165625e+05
    1.5996130183e-02    1.0181017969e+05
    1.6020702198e-02    1.0179488281e+05
    1.6045298427e-02    1.0177364844e+05
    1.6069920734e-02    1.0175872656e+05
    1.6094569117e-02    1.0174203125e+05
    1.6119243577e-02    1.0172466406e+05
    1.6143942252e-02    1.0170962500e+05
    1.6168667004e-02    1.0169450781e+05
    1.6193419695e-02    1.0168031250e+05
    1.6218200326e-02    1.0166616406e+05
    1.6243007034e-02    1.0164500000e+05
    1.6267839819e-02    1.0161952344e+05
    1.6292702407e-02    1.0158686719e+05
    1.6317596659e-02    1.0155469531e+05
    1.6342513263e-02    1.0151377344e+05
    1.6367461532e-02    1.0146065625e+05
    1.6392435879e-02    1.0140416406e+05
    1.6417443752e-02    1.0134481250e+05
    1.6442479566e-02    1.0127639844e+05
    1.6467543319e-02    1.0120880469e+05
    1.6492636874e-02    1.0113522656e+05
    1.6517756507e-02    1.0105891406e+05
    1.6542907804e-02    1.0098074219e+05
    1.6568088904e-02    1.0089207031e+05
    1.6593271866e-02    1.0079674219e+05
    1.6618426889e-02    1.0070683594e+05
    1.6643559560e-02    1.0062177344e+05
    1.6668669879e-02    1.0053302344e+05
    1.6693757847e-02    1.0044302344e+05
    1.6718825325e-02    1.0035435156e+05
    1.6743874177e-02    1.0027705469e+05
    1.6768900678e-02    1.0019693750e+05
    1.6793908551e-02    1.0012478906e+05
    1.6818899661e-02    1.0006284375e+05
    1.6843874007e-02    1.0000242969e+05
    1.6868829727e-02    9.9956476562e+04
    1.6893770546e-02    9.9907414062e+04
    1.6918692738e-02    9.9865226562e+04
    1.6943598166e-02    9.9822812500e+04
    1.6968490556e-02    9.9783570312e+04
    1.6993366182e-02    9.9748992188e+04
    1.7018226907e-02    9.9721789062e+04
    1.7043072730e-02    9.9702187500e+04
    1.7067901790e-02    9.9684968750e+04
    1.7092714086e-02    9.9675695312e+04
    1.7117511481e-02    9.9667570312e+04
    1.7142292112e-02    9.9671460938e+04
    1.7167057842e-02    9.9690460938e+04
    1.7191808671e-02    9.9714781250e+04
    1.7216544598e-02    9.9743492188e+04
    1.7241263762e-02    9.9780101562e+04
    1.7265968025e-02    9.9818101562e+04
    1.7290659249e-02    9.9863562500e+04
    1.7315333709e-02    9.9915750000e+04
    1.7339993268e-02    9.9971210938e+04
    1.7364639789e-02    1.0002574219e+05
    1.7389267683e-02    1.0007187500e+05
    1.7413880676e-02    1.0009678906e+05
    1.7438478768e-02    1.0011618750e+05
    1.7463061959e-02    1.0012259375e+05
    1.7487626523e-02    1.0011834375e+05
    1.7512176186e-02    1.0011409375e+05
    1.7536709085e-02    1.0009450781e+05
    1.7561223358e-02    1.0006918750e+05
    1.7585720867e-02    1.0003435156e+05
    1.7610201612e-02    1.0000392969e+05
    1.7634663731e-02    9.9976335938e+04
    1.7659107223e-02    9.9956132812e+04
    1.7683532089e-02    9.9943039062e+04
    1.7707940191e-02    9.9940226562e+04
    1.7732329667e-02    9.9949101562e+04
    1.7756698653e-02    9.9968632812e+04
    1.7781050876e-02    9.9987023438e+04
    1.7805384472e-02    1.0002452344e+05
    1.7829699442e-02    1.0006415625e+05
    1.7853999510e-02    1.0010872656e+05
    1.7878280953e-02    1.0015656250e+05
    1.7902545631e-02    1.0019978906e+05
    1.7926793545e-02    1.0024459375e+05
    1.7951028422e-02    1.0028503906e+05
    1.7975246534e-02    1.0032814844e+05
    1.7999447882e-02    1.0036533594e+05
    1.8023636192e-02    1.0039480469e+05
    1.8047811463e-02    1.0042108594e+05
    1.8071975559e-02    1.0044243750e+05
    1.8096126616e-02    1.0045933594e+05
    1.8120266497e-02    1.0047233594e+05
    1.8144397065e-02    1.0046811719e+05
    1.8168520182e-02    1.0047172656e+05
    1.8192630261e-02    1.0046614844e+05
    1.8216732889e-02    1.0045597656e+05
    1.8240824342e-02    1.0044687500e+05
    1.8264908344e-02    1.0043928906e+05
    1.8288983032e-02    1.0042094531e+05
    1.8313048407e-02    1.0041941406e+05
    1.8337102607e-02    1.0041243750e+05
    1.8361147493e-02    1.0041437500e+05
    1.8385183066e-02    1.0041552344e+05
    1.8409207463e-02    1.0042100781e+05
    1.8433224410e-02    1.0043547656e+05
    1.8457230181e-02    1.0046221094e+05
    1.8481226638e-02    1.0049210156e+05
    1.8505210057e-02    1.0053841406e+05
    1.8529184163e-02    1.0058492969e+05
    1.8553148955e-02    1.0064083594e+05
    1.8577100709e-02    1.0070199219e+05
    1.8601041287e-02    1.0077207031e+05
    1.8624972552e-02    1.0084853906e+05
    1.8648892641e-02    1.0093077344e+05
    1.8672801554e-02    1.0101789844e+05
    1.8696699291e-02    1.0110040625e+05
    1.8720587716e-02    1.0118497656e+05
    1.8744463101e-02    1.0126046094e+05
    1.8768329173e-02    1.0133652344e+05
    1.8792184070e-02    1.0139553906e+05
    1.8816027790e-02    1.0144416406e+05
    1.8839860335e-02    1.0148964844e+05
    1.8863683566e-02    1.0152365625e+05
    1.8887493759e-02    1.0154249219e+05
    1.8911294639e-02    1.0155533594e+05
    1.8935086206e-02    1.0156061719e+05
    1.8958866596e-02    1.0156797656e+05
    1.8982635811e-02    1.0156462500e+05
    1.9006397575e-02    1.0155808594e+05
    1.9030146301e-02    1.0155508594e+05
    1.9053885713e-02    1.0155411719e+05
    1.9077615812e-02    1.0155521875e+05
    1.9101334736e-02    1.0156594531e+05
    1.9125042483e-02    1.0158088281e+05
    1.9148740917e-02    1.0160035156e+05
    1.9172428176e-02    1.0162809375e+05
    1.9196104258e-02    1.0166028125e+05
    1.9219771028e-02    1.0170794531e+05
    1.9243424758e-02    1.0176850000e+05
    1.9267069176e-02    1.0183828906e+05
    1.9290700555e-02    1.0191932031e+05
    1.9314322621e-02    1.0201366406e+05
    1.9337931648e-02    1.0212335156e+05
    1.9361529499e-02    1.0223839844e+05
    1.9385114312e-02    1.0236939844e+05
    1.9408687949e-02    1.0249525000e+05
    1.9432250410e-02    1.0262458594e+05
    1.9455801696e-02    1.0275690625e+05
    1.9479339942e-02    1.0288230469e+05
    1.9502865151e-02    1.0299878906e+05
    1.9526379183e-02    1.0308565625e+05
    1.9549878314e-02    1.0315884375e+05
    1.9573366269e-02    1.0319960156e+05
    1.9596841186e-02    1.0321734375e+05
    1.9620303065e-02    1.0320102344e+05
    1.9643751904e-02    1.0314727344e+05
    1.9667187706e-02    1.0305746875e+05
    1.9690606743e-02    1.0293916406e+05
    1.9714014605e-02    1.0279480469e+05
    1.9737409428e-02    1.0261178125e+05
    1.9760791212e-02    1.0240652344e+05
    1.9784159958e-02    1.0217890625e+05
    1.9807513803e-02    1.0193608594e+05
    1.9830854610e-02    1.0169161719e+05
    1.9854182377e-02    1.0145238281e+05
    1.9877497107e-02    1.0122585156e+05
    1.9900798798e-02    1.0102705469e+05
    1.9924087450e-02    1.0086528125e+05
    1.9947361201e-02    1.0073035156e+05
    1.9970623776e-02    1.0063017969e+05
    1.9993871450e-02    1.0056568750e+05
    2.0017107949e-02    1.0053006250e+05
    2.0040329546e-02    1.0052425000e+05
    2.0063538104e-02    1.0054166406e+05
    2.0086731762e-02    1.0057085156e+05
    2.0109914243e-02    1.0062557031e+05
    2.0133081824e-02    1.0068890625e+05
    2.0156236365e-02    1.0075997656e+05
    2.0179376006e-02    1.0083550000e+05
    2.0202504471e-02    1.0090971094e+05
    2.0225618035e-02    1.0097903125e+05
    2.0248720422e-02    1.0104285156e+05
    2.0271807909e-02    1.0110610156e+05
    2.0294882357e-02    1.0116438281e+05
    2.0317947492e-02    1.0122014844e+05
    2.0340997726e-02    1.0127137500e+05
    2.0364036784e-02    1.0130985156e+05
    2.0387060940e-02    1.0134500781e+05
    2.0410073921e-02    1.0137290625e+05
    2.0433073863e-02    1.0140121094e+05
    2.0456060767e-02    1.0142814844e+05
    2.0479036495e-02    1.0145969531e+05
    2.0501999184e-02    1.0149971094e+05
    2.0524948835e-02    1.0153915625e+05
    2.0547885448e-02    1.0158210156e+05
    2.0570809022e-02    1.0163678125e+05
    2.0593719557e-02    1.0168960156e+05
    2.0616617054e-02    1.0175702344e+05
    2.0639499649e-02    1.0182452344e+05
    2.0662369207e-02    1.0190334375e+05
    2.0685223863e-02    1.0197718750e+05
    2.0708063617e-02    1.0204968750e+05
    2.0730890334e-02    1.0211575000e+05
    2.0753700286e-02    1.0218021094e+05
    2.0776495337e-02    1.0225149219e+05
    2.0799275488e-02    1.0230989844e+05
    2.0822042599e-02    1.0237717969e+05
    2.0844791085e-02    1.0243802344e+05
    2.0867524669e-02    1.0249753125e+05
    2.0890241489e-02    1.0254497656e+05
    2.0912945271e-02    1.0259583594e+05
    2.0935632288e-02    1.0264572656e+05
    2.0958306268e-02    1.0268953906e+05
    2.0980965346e-02    1.0272715625e+05
    2.1003607661e-02    1.0276825000e+05
    2.1026238799e-02    1.0279578125e+05
    2.1048855036e-02    1.0282299219e+05
    2.1071458235e-02    1.0284731250e+05
    2.1094048396e-02    1.0286180469e+05
    2.1116625518e-02    1.0287638281e+05
    2.1139191464e-02    1.0288757031e+05
    2.1161744371e-02    1.0289053125e+05
    2.1184286103e-02    1.0288972656e+05
    2.1206818521e-02    1.0289013281e+05
    2.1229337901e-02    1.0289039844e+05
    2.1251846105e-02    1.0288175781e+05
    2.1274344996e-02    1.0287309375e+05
    2.1296832711e-02    1.0285791406e+05
    2.1319312975e-02    1.0283758594e+05
    2.1341778338e-02    1.0280819531e+05
    2.1364232525e-02    1.0277772656e+05
    2.1386675537e-02    1.0274510156e+05
    2.1409107372e-02    1.0270193750e+05
    2.1431528032e-02    1.0265385156e+05
    2.1453931928e-02    1.0259883594e+05
    2.1476324648e-02    1.0254124219e+05
    2.1498700604e-02    1.0248257031e+05
    2.1521063522e-02    1.0241441406e+05
    2.1543409675e-02    1.0234860156e+05
    2.1565740928e-02    1.0227832031e+05
    2.1588053554e-02    1.0220891406e+05
    2.1610351279e-02    1.0213667969e+05
    2.1632634103e-02    1.0206005469e+05
    2.1654898301e-02    1.0198881250e+05
    2.1677147597e-02    1.0192266406e+05
    2.1699378267e-02    1.0185841406e+05
    2.1721594036e-02    1.0179461719e+05
    2.1743793041e-02    1.0173503906e+05
    2.1765975282e-02    1.0167559375e+05
    2.1788140759e-02    1.0162328906e+05
    2.1810289472e-02    1.0157071094e+05
    2.1832419559e-02    1.0153433594e+05
    2.1854531020e-02    1.0149941406e+05
    2.1876627579e-02    1.0146697656e+05
    2.1898705512e-02    1.0143491406e+05
    2.1920768544e-02    1.0141689844e+05
    2.1942811087e-02    1.0140159375e+05
    2.1964838728e-02    1.0138214844e+05
    2.1986849606e-02    1.0137446875e+05
    2.2008845583e-02    1.0137050000e+05
    2.2030822933e-02    1.0135763281e+05
    2.2052785382e-02    1.0135989844e+05
    2.2074732929e-02    1.0136814844e+05
    2.2096665576e-02    1.0137456250e+05
    2.2118583322e-02    1.0138313281e+05
    2.2140489891e-02    1.0139578906e+05
    2.2162377834e-02    1.0139989844e+05
    2.2184254602e-02    1.0141233594e+05
    2.2206118330e-02    1.0142296875e+05
    2.2227969021e-02    1.0143127344e+05
    2.2249806672e-02    1.0143807031e+05
    2.2271629423e-02    1.0144653125e+05
    2.2293440998e-02    1.0144900781e+05
    2.2315241396e-02    1.0146089844e+05
    2.2337028757e-02    1.0146669531e+05
    2.2358803079e-02    1.0147539844e+05
    2.2380566224e-02    1.0147749219e+05
    2.2402318195e-02    1.0147646094e+05
    2.2424057126e-02    1.0148230469e+05
    2.2445784882e-02    1.0148128906e+05
    2.2467501462e-02    1.0148350000e+05
    2.2489206865e-02    1.0148253906e+05
    2.2510899231e-02    1.0148077344e+05
    2.2532582283e-02    1.0148582031e+05
    2.2554252297e-02    1.0148397656e+05
    2.2575911134e-02    1.0147958594e+05
    2.2597560659e-02    1.0148796875e+05
    2.2619199008e-02    1.0148716406e+05
    2.2640828043e-02    1.0148503906e+05
    2.2662445903e-02    1.0148389844e+05
    2.2684050724e-02    1.0147825781e+05
    2.2705646232e-02    1.0148489844e+05
    2.2727232426e-02    1.0148250781e+05
    2.2748809308e-02    1.0148022656e+05
    2.2770375013e-02    1.0148475781e+05
    2.2791929543e-02    1.0148750000e+05
    2.2813472897e-02    1.0148810156e+05
    2.2835006937e-02    1.0148535156e+05
    2.2856531665e-02    1.0148607031e+05
    2.2878047079e-02    1.0148813281e+05
    2.2899549454e-02    1.0149517969e+05
    2.2921044379e-02    1.0149653125e+05
    2.2942528129e-02    1.0149902344e+05
    2.2964000702e-02    1.0150019531e+05
    2.2985465825e-02    1.0150012500e+05
    2.3006917909e-02    1.0149659375e+05
    2.3028360680e-02    1.0150375781e+05
    2.3049792275e-02    1.0150547656e+05
    2.3071214557e-02    1.0150843750e+05
    2.3092625663e-02    1.0151031250e+05
    2.3114029318e-02    1.0151212500e+05
    2.3135419935e-02    1.0151397656e+05
    2.3156799376e-02    1.0151690625e+05
    2.3178169504e-02    1.0151977344e+05
    2.3199530318e-02    1.0151839844e+05
    2.3220879957e-02    1.0152135156e+05
    2.3242218420e-02    1.0152453125e+05
    2.3263547570e-02    1.0153281250e+05
    2.3284865543e-02    1.0153546875e+05
    2.3306174204e-02    1.0154047656e+05
    2.3327469826e-02    1.0154780469e+05
    2.3348756135e-02    1.0155097656e+05
    2.3370031267e-02    1.0155553125e+05
    2.3391297087e-02    1.0155925000e+05
    2.3412553594e-02    1.0157478125e+05
    2.3433798924e-02    1.0157924219e+05
    2.3455033079e-02    1.0158371875e+05
    2.3476256058e-02    1.0158814844e+05
    2.3497469723e-02    1.0159266406e+05
    2.3518672213e-02    1.0159968750e+05
    2.3539865389e-02    1.0160990625e+05
    2.3561049253e-02    1.0161347656e+05
    2.3582221940e-02    1.0161360156e+05
    2.3603385314e-02    1.0161596875e+05
    2.3624535650e-02    1.0162039844e+05
    2.3645676672e-02    1.0161782031e+05
    2.3666808382e-02    1.0162028125e+05
    2.3687927052e-02    1.0162106250e+05
    2.3709038273e-02    1.0161760156e+05
    2.3730138317e-02    1.0161818750e+05
    2.3751227185e-02    1.0160660156e+05
    2.3772306740e-02    1.0160341406e+05
    2.3793375120e-02    1.0159735156e+05
    2.3814432323e-02    1.0159046094e+05
    2.3835480213e-02    1.0157862500e+05
    2.3856516927e-02    1.0157203906e+05
    2.3877544329e-02    1.0156489844e+05
    2.3898560554e-02    1.0154986719e+05
    2.3919565603e-02    1.0154314844e+05
    2.3940561339e-02    1.0152893750e+05
    2.3961545900e-02    1.0152096094e+05
    2.3982519284e-02    1.0151384375e+05
    2.4003483355e-02    1.0150365625e+05
    2.4024436250e-02    1.0150186719e+05
    2.4045377970e-02    1.0150033594e+05
    2.4066310376e-02    1.0149678125e+05
    2.4087233469e-02    1.0149212500e+05
    2.4108145386e-02    1.0148865625e+05
    2.4129044265e-02    1.0148647656e+05
    2.4149935693e-02    1.0148358594e+05
    2.4170814082e-02    1.0148782031e+05
    2.4191683158e-02    1.0148585156e+05
    2.4212542921e-02    1.0148893750e+05
    2.4233391508e-02    1.0148755469e+05
    2.4254228920e-02    1.0148524219e+05
    2.4275057018e-02    1.0148544531e+05
    2.4295873940e-02    1.0148583594e+05
    2.4316681549e-02    1.0148857031e+05
    2.4337477982e-02    1.0148722656e+05
    2.4358265102e-02    1.0148617969e+05
    2.4379042909e-02    1.0149309375e+05
    2.4399809539e-02    1.0149082031e+05
    2.4420566857e-02    1.0148502344e+05
    2.4441312999e-02    1.0147856250e+05
    2.4462047964e-02    1.0147213281e+05
    2.4482775480e-02    1.0147128125e+05
    2.4503491819e-02    1.0146815625e+05
    2.4524198845e-02    1.0147309375e+05
    2.4544894695e-02    1.0147012500e+05
    2.4565581232e-02    1.0147058594e+05
    2.4586258456e-02    1.0146875000e+05
    2.4606924504e-02    1.0146584375e+05
    2.4627581239e-02    1.0146519531e+05
    2.4648228660e-02    1.0146807031e+05
    2.4668866768e-02    1.0145712500e+05
    2.4689495564e-02    1.0145646094e+05
    2.4710113183e-02    1.0146388281e+05
    2.4730721489e-02    1.0146375781e+05
    2.4751318619e-02    1.0146366406e+05
    2.4771906435e-02    1.0145938281e+05
    2.4792486802e-02    1.0145958594e+05
    2.4813055992e-02    1.0146450781e+05
    2.4833614007e-02    1.0146312500e+05
    2.4854162708e-02    1.0146325781e+05
    2.4874702096e-02    1.0147280469e+05
    2.4895232171e-02    1.0147217969e+05
    2.4915752932e-02    1.0147030469e+05
    2.4936262518e-02    1.0146705469e+05
    2.4956764653e-02    1.0146925781e+05
    2.4977253750e-02    1.0146700000e+05
    2.4997735396e-02    1.0146835156e+05
    2.5018205866e-02    1.0146633594e+05
    2.5038668886e-02    1.0146768750e+05
    2.5059120730e-02    1.0146914844e+05
    2.5079563260e-02    1.0146953906e+05
    2.5099996477e-02    1.0147113281e+05
    2.5120420381e-02    1.0147496094e+05
    2.5140833110e-02    1.0147339844e+05
    2.5161236525e-02    1.0148250000e+05
    2.5181630626e-02    1.0148281250e+05
    2.5202017277e-02    1.0149489844e+05
    2.5222390890e-02    1.0149582031e+05
    2.5242757052e-02    1.0149696094e+05
    2.5263112038e-02    1.0150064844e+05
    2.5283459574e-02    1.0150699219e+05
    2.5303795934e-02    1.0151210156e+05
    2.5324124843e-02    1.0151509375e+05
    2.5344440714e-02    1.0151589844e+05
    2.5364749134e-02    1.0151614844e+05
    2.5385048240e-02    1.0151378906e+05
    2.5405339897e-02    1.0151063281e+05
    2.5425618514e-02    1.0150446094e+05
    2.5445887819e-02    1.0149499219e+05
    2.5466147810e-02    1.0148671094e+05
    2.5486400351e-02    1.0146941406e+05
    2.5506639853e-02    1.0145382031e+05
    2.5526873767e-02    1.0143341406e+05
    2.5547094643e-02    1.0141521094e+05
    2.5567308068e-02    1.0138866406e+05
    2.5587510318e-02    1.0136731250e+05
    2.5607703254e-02    1.0134110156e+05
    2.5627886876e-02    1.0131597656e+05
    2.5648061186e-02    1.0128958594e+05
    2.5668226182e-02    1.0127537500e+05
    2.5688380003e-02    1.0126233594e+05
    2.5708526373e-02    1.0124853906e+05
    2.5728661567e-02    1.0124831250e+05
    2.5748789310e-02    1.0125194531e+05
    2.5768904015e-02    1.0126314844e+05
    2.5789011270e-02    1.0127556250e+05
    2.5809109211e-02    1.0129553906e+05
    2.5829195976e-02    1.0132442969e+05
    2.5849273428e-02    1.0136127344e+05
    2.5869343430e-02    1.0139500000e+05
    2.5889402255e-02    1.0143550781e+05
    2.5909451768e-02    1.0147352344e+05
    2.5929493830e-02    1.0151762500e+05
    2.5949522853e-02    1.0155739844e+05
    2.5969544426e-02    1.0159646094e+05
    2.5989556685e-02    1.0163091406e+05
    2.6009559631e-02    1.0165028125e+05
    2.6029553264e-02    1.0168128125e+05
    2.6049537584e-02    1.0170185156e+05
    2.6069512591e-02    1.0171971094e+05
    2.6089478284e-02    1.0172878906e+05
    2.6109432802e-02    1.0174155469e+05
    2.6129379869e-02    1.0174822656e+05
    2.6149315760e-02    1.0174733594e+05
    2.6169244200e-02    1.0175146094e+05
    2.6189163327e-02    1.0174319531e+05
    2.6209073141e-02    1.0173047656e+05
    2.6228975505e-02    1.0172619531e+05
    2.6248866692e-02    1.0171681250e+05
    2.6268748567e-02    1.0170558594e+05
    2.6288621128e-02    1.0169671875e+05
    2.6308484375e-02    1.0169838281e+05
    2.6328338310e-02    1.0168900000e+05
    2.6348184794e-02    1.0168446094e+05
    2.6368021965e-02    1.0168100000e+05
    2.6387847960e-02    1.0167696875e+05
    2.6407664642e-02    1.0168212500e+05
    2.6427472010e-02    1.0168425781e+05
    2.6447271928e-02    1.0168912500e+05
    2.6467062533e-02    1.0169513281e+05
    2.6486843824e-02    1.0169905469e+05
    2.6506617665e-02    1.0170061719e+05
    2.6526380330e-02    1.0170206250e+05
    2.6546133682e-02    1.0170099219e+05
    2.6565877721e-02    1.0170235156e+05
    2.6585612446e-02    1.0170831250e+05
    2.6605339721e-02    1.0170532031e+05
    2.6625057682e-02    1.0170903125e+05
    2.6644766331e-02    1.0170797656e+05
    2.6664465666e-02    1.0170330469e+05
    2.6684155688e-02    1.0170517969e+05
    2.6703836396e-02    1.0170577344e+05
    2.6723509654e-02    1.0170159375e+05
    2.6743173599e-02    1.0170156250e+05
    2.6762828231e-02    1.0169585156e+05
    2.6782475412e-02    1.0169659375e+05
    2.6802113280e-02    1.0168775781e+05
    2.6821739972e-02    1.0168535156e+05
    2.6841359213e-02    1.0167908594e+05
    2.6860967278e-02    1.0167390625e+05
    2.6880569756e-02    1.0167311719e+05
    2.6900164783e-02    1.0167135156e+05
    2.6919748634e-02    1.0166977344e+05
    2.6939325035e-02    1.0166933594e+05
    2.6958892122e-02    1.0166872656e+05
    2.6978449896e-02    1.0166678906e+05
    2.6997998357e-02    1.0166343750e+05
    2.7017539367e-02    1.0166124219e+05
    2.7037071064e-02    1.0165883594e+05
    2.7056595311e-02    1.0165059375e+05
    2.7076110244e-02    1.0165417969e+05
    2.7095617726e-02    1.0165085156e+05
    2.7115115896e-02    1.0165135156e+05
    2.7134604752e-02    1.0165100781e+05
    2.7154086158e-02    1.0165785156e+05
    2.7173558250e-02    1.0165816406e+05
    2.7193021029e-02    1.0165625000e+05
    2.7212476358e-02    1.0165314844e+05
    2.7231922373e-02    1.0164963281e+05
    2.7251357213e-02    1.0165582031e+05
    2.7270786464e-02    1.0165522656e+05
    2.7290204540e-02    1.0165727344e+05
    2.7309613302e-02    1.0166210156e+05
    2.7329014614e-02    1.0166489844e+05
    2.7348404750e-02    1.0166571875e+05
    2.7367785573e-02    1.0167134375e+05
    2.7387158945e-02    1.0167508594e+05
    2.7406521142e-02    1.0168046875e+05
    2.7425874025e-02    1.0168255469e+05
    2.7445219457e-02    1.0169539844e+05
    2.7464553714e-02    1.0169833594e+05
    2.7483878657e-02    1.0170030469e+05
    2.7503194287e-02    1.0170947656e+05
    2.7522502467e-02    1.0171732031e+05
    2.7541799471e-02    1.0171839844e+05
    2.7561087161e-02    1.0171827344e+05
    2.7580365539e-02    1.0172749219e+05
    2.7599634603e-02    1.0173078906e+05
    2.7618894354e-02    1.0172727344e+05
    2.7638144791e-02    1.0173362500e+05
    2.7657385916e-02    1.0173325781e+05
    2.7676619589e-02    1.0173368750e+05
    2.7695843950e-02    1.0173638281e+05
    2.7715058997e-02    1.0174346875e+05
    2.7734262869e-02    1.0173924219e+05
    2.7753459290e-02    1.0174410156e+05
    2.7772648260e-02    1.0174546875e+05
    2.7791827917e-02    1.0175128906e+05
    2.7810998261e-02    1.0175393750e+05
    2.7830159292e-02    1.0175199219e+05
    2.7849311009e-02    1.0175547656e+05
    2.7868455276e-02    1.0175671875e+05
    2.7887590230e-02    1.0176350000e+05
    2.7906717733e-02    1.0176586719e+05
    2.7925835922e-02    1.0176691406e+05
    2.7944946662e-02    1.0176353906e+05
    2.7964048088e-02    1.0176565625e+05
    2.7983140200e-02    1.0177218750e+05
    2.8002224863e-02    1.0177417969e+05
    2.8021300212e-02    1.0177503906e+05
    2.8040368110e-02    1.0177800000e+05
    2.8059426695e-02    1.0176943750e+05
    2.8078475967e-02    1.0176999219e+05
    2.8097519651e-02    1.0177986719e+05
    2.8116554022e-02    1.0178396094e+05
    2.8135580942e-02    1.0178238281e+05
    2.8154598549e-02    1.0177808594e+05
    2.8173606843e-02    1.0177609375e+05
    2.8192607686e-02    1.0177953125e+05
    2.8211599216e-02    1.0177961719e+05
    2.8230583295e-02    1.0178187500e+05
    2.8249559924e-02    1.0178400000e+05
    2.8268527240e-02    1.0178367969e+05
    2.8287487105e-02    1.0178427344e+05
    2.8306435794e-02    1.0178466406e+05
    2.8325378895e-02    1.0177339844e+05
    2.8344312683e-02    1.0177358594e+05
    2.8363237157e-02    1.0177837500e+05
    2.8382156044e-02    1.0178596094e+05
    2.8401065618e-02    1.0178788281e+05
    2.8419965878e-02    1.0178735156e+05
    2.8438858688e-02    1.0178110156e+05
    2.8457742184e-02    1.0178603906e+05
    2.8476616368e-02    1.0179028906e+05
    2.8495483100e-02    1.0179228906e+05
    2.8514338657e-02    1.0179453125e+05
    2.8533160686e-02    1.0179210156e+05
    2.8551930562e-02    1.0179430469e+05
    2.8570635244e-02    1.0179896094e+05
    2.8589271009e-02    1.0180016406e+05
    2.8607837856e-02    1.0180141406e+05
    2.8626350686e-02    1.0180160156e+05
    2.8644818813e-02    1.0180424219e+05
    2.8663259000e-02    1.0180812500e+05
    2.8681686148e-02    1.0180978125e+05
    2.8700113297e-02    1.0181150781e+05
    2.8718546033e-02    1.0181172656e+05
    2.8736986220e-02    1.0181440625e+05
    2.8755431995e-02    1.0181697656e+05
    2.8773877770e-02    1.0181503906e+05
    2.8792314231e-02    1.0181871875e+05
    2.8810730204e-02    1.0182027344e+05
    2.8829116374e-02    1.0182308594e+05
    2.8847465292e-02    1.0182605469e+05
    2.8865773231e-02    1.0182566406e+05
    2.8884036466e-02    1.0182978906e+05
    2.8902258724e-02    1.0182922656e+05
    2.8920443729e-02    1.0183321094e+05
    2.8938598931e-02    1.0183497656e+05
    2.8956729919e-02    1.0183553906e+05
    2.8974846005e-02    1.0183497656e+05
    2.8992949054e-02    1.0183332031e+05
    2.9011042789e-02    1.0183956250e+05
    2.9029129073e-02    1.0184352344e+05
    2.9047204182e-02    1.0184532031e+05
    2.9065268114e-02    1.0184471094e+05
    2.9083315283e-02    1.0184616406e+05
    2.9101338238e-02    1.0184533594e+05
    2.9119335115e-02    1.0184884375e+05
    2.9137304053e-02    1.0184891406e+05
    2.9155241325e-02    1.0184900000e+05
    2.9173148796e-02    1.0184553906e+05
    2.9191024601e-02    1.0184449219e+05
    2.9208874330e-02    1.0185500000e+05
    2.9226697981e-02    1.0185403906e+05
    2.9244501144e-02    1.0184614844e+05
    2.9262285680e-02    1.0185650000e+05
    2.9280053452e-02    1.0185755469e+05
    2.9297806323e-02    1.0185153906e+05
    2.9315544292e-02    1.0185021094e+05
    2.9333265498e-02    1.0185596875e+05
    2.9350971803e-02    1.0185214844e+05
    2.9368655756e-02    1.0185734375e+05
    2.9386319220e-02    1.0185128906e+05
    2.9403960332e-02    1.0185313281e+05
    2.9421577230e-02    1.0185396094e+05
    2.9439168051e-02    1.0185359375e+05
    2.9456734657e-02    1.0185560156e+05
    2.9474277049e-02    1.0185760156e+05
    2.9491795227e-02    1.0185614844e+05
    2.9509292915e-02    1.0185913281e+05
    2.9526771978e-02    1.0185746094e+05
    2.9544232413e-02    1.0185790625e+05
    2.9561674222e-02    1.0185827344e+05
    2.9579099268e-02    1.0185858594e+05
    2.9596509412e-02    1.0185883594e+05
    2.9613900930e-02    1.0185308594e+05
    2.9631273821e-02    1.0185525000e+05
    2.9648626223e-02    1.0185410156e+05
    2.9665958136e-02    1.0185430469e+05
    2.9683271423e-02    1.0186150000e+05
    2.9700560495e-02    1.0185953906e+05
    2.9717829078e-02    1.0186202344e+05
    2.9735075310e-02    1.0186228125e+05
    2.9752301052e-02    1.0186122656e+05
    2.9769508168e-02    1.0186011719e+05
    2.9786696658e-02    1.0185766406e+05
    2.9803866521e-02    1.0185772656e+05
    2.9821017757e-02    1.0186264844e+05
    2.9838152230e-02    1.0186078906e+05
    2.9855269939e-02    1.0185891406e+05
    2.9872370884e-02    1.0186396094e+05
    2.9889453202e-02    1.0186685156e+05
    2.9906518757e-02    1.0186758594e+05
    2.9923565686e-02    1.0186938281e+05
    2.9940593988e-02    1.0186891406e+05
    2.9957601801e-02    1.0186591406e+05
    2.9974590987e-02    1.0186991406e+05
    2.9991561547e-02    1.0187041406e+05
    3.0008511618e-02    1.0187087500e+05
    3.0025444925e-02    1.0187125000e+05
    3.0042361468e-02    1.0186921875e+05
    3.0059259385e-02    1.0186506250e+05
    3.0076142401e-02    1.0187238281e+05
    3.0093006790e-02    1.0187405469e+05
    3.0109854415e-02    1.0187353906e+05
    3.0126683414e-02    1.0187417969e+05
    3.0143497512e-02    1.0187599219e+05
    3.0160292983e-02    1.0187562500e+05
    3.0177071691e-02    1.0187892969e+05
    3.0193833634e-02    1.0187789844e+05
    3.0210576952e-02    1.0188152344e+05
    3.0227303505e-02    1.0188765625e+05
    3.0244011432e-02    1.0189405469e+05
    3.0260702595e-02    1.0188416406e+05
    3.0277376994e-02    1.0188553125e+05
    3.0294034630e-02    1.0188796875e+05
    3.0310675502e-02    1.0188905469e+05
    3.0327299610e-02    1.0188646094e+05
    3.0343905091e-02    1.0188486719e+05
    3.0360495672e-02    1.0188235156e+05
    3.0377071351e-02    1.0188903906e+05
    3.0393628404e-02    1.0189214844e+05
    3.0410168692e-02    1.0189302344e+05
    3.0426690355e-02    1.0189371875e+05
    3.0443195254e-02    1.0188944531e+05
    3.0459685251e-02    1.0188522656e+05
    3.0476156622e-02    1.0188546094e+05
    3.0492611229e-02    1.0188821094e+05
    3.0509050936e-02    1.0189560156e+05
    3.0525473878e-02    1.0189511719e+05
    3.0541881919e-02    1.0189685156e+05
    3.0558273196e-02    1.0189741406e+05
    3.0574647710e-02    1.0188646094e+05
    3.0591005459e-02    1.0189608594e+05
    3.0607348308e-02    1.0189659375e+05
    3.0623674393e-02    1.0189944531e+05
    3.0639985576e-02    1.0189997656e+05
    3.0656279996e-02    1.0189380469e+05
    3.0672557652e-02    1.0189880469e+05
    3.0688818544e-02    1.0189949219e+05
    3.0705062672e-02    1.0190039844e+05
    3.0721291900e-02    1.0190635156e+05
    3.0737506226e-02    1.0191228906e+05
    3.0753703788e-02    1.0191515625e+05
    3.0769886449e-02    1.0191818750e+05
    3.0786054209e-02    1.0192021094e+05
    3.0802207068e-02    1.0192471094e+05
    3.0818343163e-02    1.0192947656e+05
    3.0834466219e-02    1.0193824219e+05
    3.0850572512e-02    1.0194043750e+05
    3.0866663903e-02    1.0195082031e+05
    3.0882738531e-02    1.0195710156e+05
    3.0898798257e-02    1.0196589844e+05
    3.0914843082e-02    1.0197013281e+05
    3.0930871144e-02    1.0197658594e+05
    3.0946886167e-02    1.0197955469e+05
    3.0962884426e-02    1.0197558594e+05
    3.0978867784e-02    1.0198671094e+05
    3.0994836241e-02    1.0199108594e+05
    3.1010789797e-02    1.0199549219e+05
    3.1026728451e-02    1.0200102344e+05
    3.1042650342e-02    1.0199733594e+05
    3.1058559194e-02    1.0200616406e+05
    3.1074455008e-02    1.0201646875e+05
    3.1090334058e-02    1.0202203906e+05
    3.1106200069e-02    1.0201587500e+05
    3.1122051179e-02    1.0201863281e+05
    3.1137887388e-02    1.0202235156e+05
    3.1153710559e-02    1.0202227344e+05
    3.1169516966e-02    1.0201696094e+05
    3.1185310334e-02    1.0201482031e+05
    3.1201090664e-02    1.0201190625e+05
    3.1216854230e-02    1.0201327344e+05
    3.1232602894e-02    1.0200381250e+05
    3.1248336658e-02    1.0200302344e+05
    3.1264055520e-02    1.0200291406e+05
    3.1279761344e-02    1.0199200000e+05
    3.1295452267e-02    1.0199196094e+05
    3.1311132014e-02    1.0197878125e+05
    3.1326796860e-02    1.0197407031e+05
    3.1342446804e-02    1.0196310156e+05
    3.1358085573e-02    1.0195841406e+05
    3.1373709440e-02    1.0194525781e+05
    3.1389318407e-02    1.0193863281e+05
    3.1404916197e-02    1.0193414844e+05
    3.1420499086e-02    1.0192966406e+05
    3.1436067075e-02    1.0192721094e+05
    3.1451620162e-02    1.0191542969e+05
    3.1467158347e-02    1.0190785156e+05
    3.1482685357e-02    1.0190118750e+05
    3.1498193741e-02    1.0189438281e+05
    3.1513694674e-02    1.0188864844e+05
    3.1529176980e-02    1.0188302344e+05
    3.1544648111e-02    1.0187771094e+05
    3.1560108066e-02    1.0187735156e+05
    3.1575553119e-02    1.0187803125e+05
    3.1590986997e-02    1.0188403906e+05
    3.1606405973e-02    1.0189210156e+05
    3.1621813774e-02    1.0190218750e+05
    3.1637206674e-02    1.0190041406e+05
    3.1652588397e-02    1.0191085156e+05
    3.1667951494e-02    1.0192196875e+05
    3.1683307141e-02    1.0192339844e+05
    3.1698647887e-02    1.0193677344e+05
    3.1713977456e-02    1.0193810156e+05
    3.1729292125e-02    1.0194910156e+05
    3.1744595617e-02    1.0195249219e+05
    3.1759884208e-02    1.0195735156e+05
    3.1775161624e-02    1.0196936719e+05
    3.1790427864e-02    1.0197365625e+05
    3.1805675477e-02    1.0197817969e+05
    3.1820915639e-02    1.0199446094e+05
    3.1836140901e-02    1.0199732031e+05
    3.1851354986e-02    1.0200272656e+05
    3.1866557896e-02    1.0201067969e+05
    3.1881745905e-02    1.0202110156e+05
    3.1896922737e-02    1.0203200781e+05
    3.1912088394e-02    1.0203840625e+05
    3.1927239150e-02    1.0204491406e+05
    3.1942378730e-02    1.0205260156e+05
    3.1957507133e-02    1.0205809375e+05
    3.1972620636e-02    1.0206689844e+05
    3.1987726688e-02    1.0207108594e+05
    3.2002814114e-02    1.0207961719e+05
    3.2017890364e-02    1.0208342969e+05
    3.2032959163e-02    1.0208443750e+05
    3.2048013061e-02    1.0208760156e+05
    3.2063052058e-02    1.0208439844e+05
    3.2078083605e-02    1.0208544531e+05
    3.2093103975e-02    1.0208952344e+05
    3.2108109444e-02    1.0208647656e+05
    3.2123107463e-02    1.0209013281e+05
    3.2138090581e-02    1.0209377344e+05
    3.2153062522e-02    1.0209730469e+05
    3.2168023288e-02    1.0210065625e+05
    3.2182972878e-02    1.0210264844e+05
    3.2197911292e-02    1.0209966406e+05
    3.2212834805e-02    1.0209989844e+05
    3.2227750868e-02    1.0210083594e+05
    3.2242652029e-02    1.0209219531e+05
    3.2257542014e-02    1.0209358594e+05
    3.2272424549e-02    1.0209485156e+05
    3.2287292182e-02    1.0209593750e+05
    3.2302148640e-02    1.0209689844e+05
    3.2316997647e-02    1.0209533594e+05
    3.2331831753e-02    1.0208875781e+05
    3.2346658409e-02    1.0208772656e+05
    3.2361470163e-02    1.0208650781e+05
    3.2376270741e-02    1.0208852344e+05
    3.2391063869e-02    1.0208115625e+05
    3.2405842096e-02    1.0207832031e+05
    3.2420612872e-02    1.0207762500e+05
    3.2435368747e-02    1.0207681250e+05
    3.2450113446e-02    1.0207580469e+05
    3.2464850694e-02    1.0207353906e+05
    3.2479573041e-02    1.0207105469e+05
    3.2494287938e-02    1.0206265625e+05
    3.2508991659e-02    1.0205850000e+05
    3.2523684204e-02    1.0205678906e+05
    3.2538365573e-02    1.0205522656e+05
    3.2553035766e-02    1.0205614844e+05
    3.2567698509e-02    1.0206418750e+05
    3.2582346350e-02    1.0206316406e+05
    3.2596986741e-02    1.0206197656e+05
    3.2611619681e-02    1.0205130469e+05
    3.2626237720e-02    1.0204939844e+05
    3.2640848309e-02    1.0204606250e+05
    3.2655447721e-02    1.0204249219e+05
    3.2670035958e-02    1.0203771094e+05
    3.2684613019e-02    1.0203991406e+05
    3.2699178904e-02    1.0203766406e+05
    3.2713737339e-02    1.0203562500e+05
    3.2728284597e-02    1.0203378906e+05
    3.2742820680e-02    1.0203453125e+05
    3.2757349312e-02    1.0203314844e+05
    3.2771866769e-02    1.0203196875e+05
    3.2786373049e-02    1.0204003125e+05
    3.2800871879e-02    1.0203896094e+05
    3.2815355808e-02    1.0203185156e+05
    3.2829832286e-02    1.0202478125e+05
    3.2844301313e-02    1.0202317969e+05
    3.2858755440e-02    1.0202278906e+05
    3.2873202115e-02    1.0202260156e+05
    3.2887637615e-02    1.0202950781e+05
    3.2902065665e-02    1.0203210156e+05
    3.2916482538e-02    1.0202669531e+05
    3.2930891961e-02    1.0202094531e+05
    3.2945290208e-02    1.0201983594e+05
    3.2959677279e-02    1.0201767969e+05
    3.2974056900e-02    1.0202013281e+05
    3.2988425344e-02    1.0202428906e+05
    3.3002786338e-02    1.0202390625e+05
    3.3017136157e-02    1.0202478906e+05
    3.3031478524e-02    1.0202575000e+05
    3.3045809716e-02    1.0202564844e+05
    3.3060129732e-02    1.0202563281e+05
    3.3074442297e-02    1.0202567969e+05
    3.3088747412e-02    1.0202585156e+05
    3.3103041351e-02    1.0203085156e+05
    3.3117324114e-02    1.0203462500e+05
    3.3131599426e-02    1.0203385156e+05
    3.3145863563e-02    1.0203424219e+05
    3.3160120249e-02    1.0202534375e+05
    3.3174365759e-02    1.0202547656e+05
    3.3188603818e-02    1.0202671875e+05
    3.3202830702e-02    1.0202568750e+05
    3.3217050135e-02    1.0202832031e+05
    3.3231258392e-02    1.0203421875e+05
    3.3245459199e-02    1.0203346094e+05
    3.3259648830e-02    1.0203364844e+05
    3.3273831010e-02    1.0203139844e+05
    3.3288005739e-02    1.0203233594e+05
    3.3302169293e-02    1.0202393750e+05
    3.3316325396e-02    1.0202121094e+05
    3.3330474049e-02    1.0202075781e+05
    3.3344611526e-02    1.0202046094e+05
    3.3358741552e-02    1.0202956250e+05
    3.3372864127e-02    1.0203074219e+05
    3.3386975527e-02    1.0203078906e+05
    3.3401079476e-02    1.0202733594e+05
    3.3415172249e-02    1.0202016406e+05
    3.3429257572e-02    1.0201978125e+05
    3.3443335444e-02    1.0201931250e+05
    3.3457405865e-02    1.0201883594e+05
    3.3471468836e-02    1.0201591406e+05
    3.3485524356e-02    1.0201518750e+05
    3.3499568701e-02    1.0201455469e+05
    3.3513605595e-02    1.0201503906e+05
    3.3527631313e-02    1.0201552344e+05
    3.3541653305e-02    1.0201253125e+05
    3.3555664122e-02    1.0201393750e+05
    3.3569667488e-02    1.0201297656e+05
    3.3583663404e-02    1.0200980469e+05
    3.3597648144e-02    1.0200877344e+05
    3.3611625433e-02    1.0200760156e+05
    3.3625595272e-02    1.0200635156e+05
    3.3639557660e-02    1.0200262500e+05
    3.3653512597e-02    1.0200006250e+05
    3.3667460084e-02    1.0199658594e+05
    3.3681396395e-02    1.0200013281e+05
    3.3695328981e-02    1.0200141406e+05
    3.3709254116e-02    1.0200172656e+05
    3.3723168075e-02    1.0200112500e+05
    3.3737078309e-02    1.0200188281e+05
    3.3750977367e-02    1.0200281250e+05
    3.3764872700e-02    1.0200496875e+05
    3.3778760582e-02    1.0200835156e+05
    3.3792637289e-02    1.0201191406e+05
    3.3806510270e-02    1.0200271094e+05
    3.3820372075e-02    1.0200250781e+05
    3.3834230155e-02    1.0200337500e+05
    3.3848077059e-02    1.0200189844e+05
    3.3861916512e-02    1.0200384375e+05
    3.3875752240e-02    1.0200116406e+05
    3.3889576793e-02    1.0200080469e+05
    3.3903393894e-02    1.0200160156e+05
    3.3917203546e-02    1.0200244531e+05
    3.3931009471e-02    1.0199991406e+05
    3.3944804221e-02    1.0199975000e+05
    3.3958595246e-02    1.0200185156e+05
    3.3972378820e-02    1.0200178906e+05
    3.3986151218e-02    1.0200175000e+05
    3.3999919891e-02    1.0200050000e+05
    3.4013681114e-02    1.0200141406e+05
    3.4027434886e-02    1.0200108594e+05
    3.4041177481e-02    1.0200060156e+05
    3.4054916352e-02    1.0200000781e+05
    3.4068647772e-02    1.0199464844e+05
    3.4082375467e-02    1.0198944531e+05
    3.4096091986e-02    1.0199103906e+05
    3.4109804779e-02    1.0199272656e+05
    3.4123510122e-02    1.0199892969e+05
    3.4137208015e-02    1.0199731250e+05
    3.4150898457e-02    1.0199567969e+05
    3.4164581448e-02    1.0199518750e+05
    3.4178260714e-02    1.0199459375e+05
    3.4191932529e-02    1.0198692969e+05
    3.4205596894e-02    1.0198391406e+05
    3.4219253808e-02    1.0198297656e+05
    3.4232903272e-02    1.0198197656e+05
    3.4246545285e-02    1.0198100000e+05
    3.4260183573e-02    1.0197771094e+05
    3.4273810685e-02    1.0197896094e+05
    3.4287434071e-02    1.0197802344e+05
    3.4301050007e-02    1.0197478125e+05
    3.4314658493e-02    1.0197505469e+05
    3.4328263253e-02    1.0197540625e+05
    3.4341860563e-02    1.0197450000e+05
    3.4355450422e-02    1.0197371094e+05
    3.4369036555e-02    1.0197056250e+05
    3.4382611513e-02    1.0197066406e+05
    3.4396182746e-02    1.0196822656e+05
    3.4409742802e-02    1.0196791406e+05
    3.4423299134e-02    1.0195596094e+05
    3.4436848015e-02    1.0195516406e+05
    3.4450393170e-02    1.0195205469e+05
    3.4463927150e-02    1.0195010156e+05
    3.4477461129e-02    1.0195067969e+05
    3.4490987659e-02    1.0195589844e+05
    3.4504506737e-02    1.0195450000e+05
    3.4518022090e-02    1.0195321094e+05
    3.4531529993e-02    1.0195191406e+05
    3.4545030445e-02    1.0195058594e+05
    3.4558523446e-02    1.0195143750e+05
    3.4572008997e-02    1.0194759375e+05
    3.4585487098e-02    1.0194119531e+05
    3.4598957747e-02    1.0193481250e+05
    3.4612424672e-02    1.0193515625e+05
    3.4625884145e-02    1.0193099219e+05
    3.4639336169e-02    1.0193363281e+05
    3.4652780741e-02    1.0193189844e+05
    3.4666225314e-02    1.0193028906e+05
    3.4679658711e-02    1.0193131250e+05
    3.4693088382e-02    1.0193002344e+05
    3.4706510603e-02    1.0193096875e+05
    3.4719929099e-02    1.0193191406e+05
    3.4733340144e-02    1.0192828906e+05
    3.4746743739e-02    1.0191989844e+05
    3.4760143608e-02    1.0192747656e+05
    3.4773536026e-02    1.0192602344e+05
    3.4786924720e-02    1.0191990625e+05
    3.4800305963e-02    1.0192297656e+05
    3.4813679755e-02    1.0191455469e+05
    3.4827046096e-02    1.0191089844e+05
    3.4840408713e-02    1.0191413281e+05
    3.4853763878e-02    1.0191515625e+05
    3.4867111593e-02    1.0191617969e+05
    3.4880455583e-02    1.0191489844e+05
    3.4893795848e-02    1.0191362500e+05
    3.4907124937e-02    1.0191227344e+05
    3.4920454025e-02    1.0190633594e+05
    3.4933775663e-02    1.0190266406e+05
    3.4947093576e-02    1.0190809375e+05
    3.4960404038e-02    1.0190674219e+05
    3.4973710775e-02    1.0190544531e+05
    3.4987010062e-02    1.0190416406e+05
endcurve
