Curveplot
LS-DYNA keyword deck by LS-PrePost                          
Time
Pressure
Defined Connection
Pressure @ 95 #pts=1745
* Minval=     9.9234476562e+04 at time=         0.0170182269
* Maxval=     1.6399700000e+05 at time=         0.0082529616
    0.0000000000e+00    9.9998710938e+04
    3.3812357287e-05    9.9998710938e+04
    6.1326652940e-05    9.9996585938e+04
    8.9102875791e-05    9.9998968750e+04
    1.1682785407e-04    1.0000141406e+05
    1.4461828687e-04    9.9997226562e+04
    1.7236733402e-04    1.0000446094e+05
    2.0016246708e-04    9.9998210938e+04
    2.2795486439e-04    1.0000321875e+05
    2.5574557367e-04    1.0000142969e+05
    2.8353667585e-04    1.0000172656e+05
    3.1133697485e-04    1.0000175781e+05
    3.3912662184e-04    9.9999273438e+04
    3.6691734567e-04    9.9994468750e+04
    3.9470891352e-04    1.0000122656e+05
    4.2249175021e-04    9.9996554688e+04
    4.5027161832e-04    1.0000099219e+05
    4.7804549104e-04    1.0000125000e+05
    5.0581363030e-04    1.0000627344e+05
    5.3357944125e-04    9.9999757812e+04
    5.6134146871e-04    1.0000197656e+05
    5.8909942163e-04    9.9997218750e+04
    6.1685312539e-04    9.9992312500e+04
    6.4460188150e-04    1.0000121094e+05
    6.7234638846e-04    1.0000174219e+05
    7.0008635521e-04    1.0000210156e+05
    7.2782178177e-04    1.0000236719e+05
    7.5555208605e-04    1.0000009375e+05
    7.8327720985e-04    1.0000183594e+05
    8.1099680392e-04    9.9998906250e+04
    8.3871174138e-04    9.9991585938e+04
    8.6642213864e-04    1.0000075000e+05
    8.9412782108e-04    1.0000612500e+05
    9.2182843946e-04    1.0000249219e+05
    9.4952445943e-04    1.0000281250e+05
    9.7721535712e-04    1.0000049219e+05
    1.0049008997e-03    9.9998070312e+04
    1.0325826006e-03    1.0000008594e+05
    1.0602590628e-03    1.0000222656e+05
    1.0879321489e-03    1.0000008594e+05
    1.1155996472e-03    1.0000239844e+05
    1.1432634201e-03    1.0000249219e+05
    1.1709230021e-03    9.9991851562e+04
    1.1985785095e-03    9.9992687500e+04
    1.2262313394e-03    1.0000194531e+05
    1.2538790470e-03    1.0001133594e+05
    1.2815232622e-03    1.0000274219e+05
    1.3091630535e-03    1.0000343750e+05
    1.3368004002e-03    9.9994726562e+04
    1.3644339051e-03    1.0000964844e+05
    1.3920635683e-03    1.0002715625e+05
    1.4196902048e-03    1.0005527344e+05
    1.4473132323e-03    1.0010536719e+05
    1.4749332331e-03    1.0019518750e+05
    1.5025498578e-03    1.0032721875e+05
    1.5301633393e-03    1.0051921094e+05
    1.5577742597e-03    1.0077385156e+05
    1.5853822697e-03    1.0109040625e+05
    1.6129877185e-03    1.0146200781e+05
    1.6405890929e-03    1.0186583594e+05
    1.6681876732e-03    1.0225922656e+05
    1.6957829939e-03    1.0259782031e+05
    1.7233766848e-03    1.0286800781e+05
    1.7509678146e-03    1.0305091406e+05
    1.7785291420e-03    1.0313772656e+05
    1.8060547300e-03    1.0314096875e+05
    1.8335470231e-03    1.0305452344e+05
    1.8610082334e-03    1.0291189844e+05
    1.8884401070e-03    1.0274950000e+05
    1.9158447394e-03    1.0257964844e+05
    1.9432241097e-03    1.0241480469e+05
    1.9705800805e-03    1.0229228906e+05
    1.9979148638e-03    1.0222187500e+05
    2.0252298564e-03    1.0219606250e+05
    2.0525271539e-03    1.0221936719e+05
    2.0798076876e-03    1.0227400000e+05
    2.1070730872e-03    1.0234412500e+05
    2.1343247499e-03    1.0241208594e+05
    2.1615643054e-03    1.0248167969e+05
    2.1887931507e-03    1.0253161719e+05
    2.2160108201e-03    1.0254706250e+05
    2.2432196420e-03    1.0253627344e+05
    2.2704207804e-03    1.0250743750e+05
    2.2976147011e-03    1.0247365625e+05
    2.3248014040e-03    1.0244747656e+05
    2.3519827519e-03    1.0241897656e+05
    2.3791582789e-03    1.0239891406e+05
    2.4063293822e-03    1.0238225781e+05
    2.4334960617e-03    1.0238384375e+05
    2.4606597144e-03    1.0238843750e+05
    2.4878205732e-03    1.0241003906e+05
    2.5149781723e-03    1.0243266406e+05
    2.5421329774e-03    1.0244224219e+05
    2.5692859199e-03    1.0244858594e+05
    2.5964374654e-03    1.0244896094e+05
    2.6235871483e-03    1.0244644531e+05
    2.6507352013e-03    1.0243528906e+05
    2.6778825559e-03    1.0242321094e+05
    2.7050296776e-03    1.0241846875e+05
    2.7321761008e-03    1.0241977344e+05
    2.7593218256e-03    1.0241540625e+05
    2.7864677832e-03    1.0242360156e+05
    2.8136142064e-03    1.0242350000e+05
    2.8407603968e-03    1.0243583594e+05
    2.8679079842e-03    1.0244903125e+05
    2.8950548731e-03    1.0246296875e+05
    2.9222022276e-03    1.0248499219e+05
    2.9493502807e-03    1.0251885156e+05
    2.9764990322e-03    1.0257246094e+05
    3.0036487151e-03    1.0263550000e+05
    3.0307997949e-03    1.0272427344e+05
    3.0579508748e-03    1.0281153906e+05
    3.0851035845e-03    1.0291561719e+05
    3.1122572254e-03    1.0302621094e+05
    3.1394117977e-03    1.0312103906e+05
    3.1665677670e-03    1.0320458594e+05
    3.1937246677e-03    1.0325946875e+05
    3.2208829653e-03    1.0329856250e+05
    3.2480424270e-03    1.0331164844e+05
    3.2752046827e-03    1.0329471094e+05
    3.2952371985e-03    1.0325310156e+05
    3.3145032357e-03    1.0321785156e+05
    3.3336398192e-03    1.0318530469e+05
    3.3528339118e-03    1.0314783594e+05
    3.3720366191e-03    1.0310458594e+05
    3.3912549261e-03    1.0306387500e+05
    3.4104890656e-03    1.0301441406e+05
    3.4297339153e-03    1.0297083594e+05
    3.4486323129e-03    1.0292886719e+05
    3.4671388566e-03    1.0287853906e+05
    3.4854323603e-03    1.0283152344e+05
    3.5036695190e-03    1.0277150000e+05
    3.5219141282e-03    1.0270725000e+05
    3.5401545465e-03    1.0263880469e+05
    3.5583588760e-03    1.0256625000e+05
    3.5765271168e-03    1.0249713281e+05
    3.5946895368e-03    1.0243024219e+05
    3.6139658187e-03    1.0237124219e+05
    3.6330535077e-03    1.0232106250e+05
    3.6521453876e-03    1.0228322656e+05
    3.6699753255e-03    1.0225164844e+05
    3.6875614896e-03    1.0223089844e+05
    3.7050142419e-03    1.0221033594e+05
    3.7224807311e-03    1.0218864844e+05
    3.7400643341e-03    1.0217846875e+05
    3.7577797193e-03    1.0217041406e+05
    3.7755726371e-03    1.0215299219e+05
    3.7933769636e-03    1.0214657031e+05
    3.8111612666e-03    1.0213965625e+05
    3.8289318327e-03    1.0213078906e+05
    3.8467168342e-03    1.0212565625e+05
    3.8645383902e-03    1.0211822656e+05
    3.8824023213e-03    1.0211397656e+05
    3.9002960548e-03    1.0209791406e+05
    3.9182156324e-03    1.0209141406e+05
    3.9361710660e-03    1.0207477344e+05
    3.9541716687e-03    1.0205822656e+05
    3.9733103476e-03    1.0204158594e+05
    3.9924201556e-03    1.0202212500e+05
    4.0104058571e-03    1.0199557031e+05
    4.0284004062e-03    1.0198799219e+05
    4.0464363992e-03    1.0197446875e+05
    4.0656095371e-03    1.0196881250e+05
    4.0847789496e-03    1.0196433594e+05
    4.1039343923e-03    1.0196110156e+05
    4.1219722480e-03    1.0195758594e+05
    4.1400394402e-03    1.0195681250e+05
    4.1591953486e-03    1.0194594531e+05
    4.1784178466e-03    1.0193471875e+05
    4.1976389475e-03    1.0192324219e+05
    4.2168586515e-03    1.0190941406e+05
    4.2360713705e-03    1.0190278906e+05
    4.2552771047e-03    1.0189875000e+05
    4.2744791135e-03    1.0188796875e+05
    4.2936825193e-03    1.0187683594e+05
    4.3128933758e-03    1.0186493750e+05
    4.3321144767e-03    1.0185203125e+05
    4.3513495475e-03    1.0183774219e+05
    4.3705995195e-03    1.0182172656e+05
    4.3898657896e-03    1.0180141406e+05
    4.4091497548e-03    1.0177865625e+05
    4.4284537435e-03    1.0175499219e+05
    4.4477786869e-03    1.0171810156e+05
    4.4671236537e-03    1.0167396094e+05
    4.4864914380e-03    1.0162515625e+05
    4.5058806427e-03    1.0156753125e+05
    4.5252908021e-03    1.0148765625e+05
    4.5447219163e-03    1.0140458594e+05
    4.5641721226e-03    1.0131134375e+05
    4.5836409554e-03    1.0121503906e+05
    4.6031279489e-03    1.0110266406e+05
    4.6226321720e-03    1.0098516406e+05
    4.6421540901e-03    1.0086299219e+05
    4.6616927721e-03    1.0074163281e+05
    4.6812482178e-03    1.0061989844e+05
    4.7008208930e-03    1.0050461719e+05
    4.7204112634e-03    1.0039606250e+05
    4.7400193289e-03    1.0030356250e+05
    4.7596455552e-03    1.0022928906e+05
    4.7792894766e-03    1.0017981250e+05
    4.7989510931e-03    1.0014977344e+05
    4.8186304048e-03    1.0014678125e+05
    4.8383255489e-03    1.0016378125e+05
    4.8580355942e-03    1.0019314844e+05
    4.8777610064e-03    1.0023321094e+05
    4.8975008540e-03    1.0028224219e+05
    4.9172551371e-03    1.0034203125e+05
    4.9370229244e-03    1.0040517969e+05
    4.9568060786e-03    1.0046843750e+05
    4.9766036682e-03    1.0052853906e+05
    4.9964170903e-03    1.0058360156e+05
    5.0162458792e-03    1.0062041406e+05
    5.0360900350e-03    1.0064637500e+05
    5.0559476949e-03    1.0066533594e+05
    5.0758207217e-03    1.0067472656e+05
    5.0957072526e-03    1.0067957031e+05
    5.1156077534e-03    1.0067355469e+05
    5.1355226897e-03    1.0066632031e+05
    5.1554525271e-03    1.0065414844e+05
    5.1753963344e-03    1.0063793750e+05
    5.1953555085e-03    1.0061156250e+05
    5.2153295837e-03    1.0058939844e+05
    5.2353194915e-03    1.0057966406e+05
    5.2553247660e-03    1.0057392969e+05
    5.2753463387e-03    1.0057272656e+05
    5.2953832783e-03    1.0057171875e+05
    5.3154369816e-03    1.0058211719e+05
    5.3355065174e-03    1.0058981250e+05
    5.3555918857e-03    1.0059665625e+05
    5.3756926209e-03    1.0060007031e+05
    5.3958082572e-03    1.0061093750e+05
    5.4159392603e-03    1.0062678906e+05
    5.4360851645e-03    1.0064056250e+05
    5.4562464356e-03    1.0065083594e+05
    5.4764230736e-03    1.0065942969e+05
    5.4966160096e-03    1.0066568750e+05
    5.5168238468e-03    1.0066496094e+05
    5.5370470509e-03    1.0066296094e+05
    5.5572865531e-03    1.0066372656e+05
    5.5775423534e-03    1.0066441406e+05
    5.5978130549e-03    1.0067200000e+05
    5.6181000546e-03    1.0067736719e+05
    5.6384028867e-03    1.0067711719e+05
    5.6587206200e-03    1.0067481250e+05
    5.6790532544e-03    1.0067955469e+05
    5.6994007900e-03    1.0067989844e+05
    5.7197632268e-03    1.0068261719e+05
    5.7401410304e-03    1.0068306250e+05
    5.7605337352e-03    1.0067897656e+05
    5.7809422724e-03    1.0069103125e+05
    5.8013652451e-03    1.0069460156e+05
    5.8218040504e-03    1.0069849219e+05
    5.8422577567e-03    1.0070714844e+05
    5.8627268299e-03    1.0071589844e+05
    5.8832112700e-03    1.0071547656e+05
    5.9037101455e-03    1.0071728906e+05
    5.9242248535e-03    1.0072814844e+05
    5.9447535314e-03    1.0073213281e+05
    5.9641525149e-03    1.0073631250e+05
    5.9830932878e-03    1.0074056250e+05
    6.0020405799e-03    1.0074506250e+05
    6.0210367665e-03    1.0075890625e+05
    6.0400799848e-03    1.0076272656e+05
    6.0591096990e-03    1.0075847656e+05
    6.0781282373e-03    1.0076885156e+05
    6.0972142965e-03    1.0077571094e+05
    6.1162756756e-03    1.0078497656e+05
    6.1353649944e-03    1.0078764844e+05
    6.1544459313e-03    1.0080221875e+05
    6.1734300107e-03    1.0080702344e+05
    6.1924448237e-03    1.0081875781e+05
    6.2115197070e-03    1.0082490625e+05
    6.2306127511e-03    1.0083560156e+05
    6.2497169711e-03    1.0084063281e+05
    6.2688281760e-03    1.0084712500e+05
    6.2879407778e-03    1.0086552344e+05
    6.3070552424e-03    1.0088241406e+05
    6.3261794858e-03    1.0089330469e+05
    6.3453060575e-03    1.0090833594e+05
    6.3644465990e-03    1.0092767969e+05
    6.3835908659e-03    1.0094816406e+05
    6.4027444459e-03    1.0096943750e+05
    6.4219115302e-03    1.0098117969e+05
    6.4410855994e-03    1.0100460156e+05
    6.4602680504e-03    1.0102161719e+05
    6.4794607460e-03    1.0103743750e+05
    6.4986641519e-03    1.0104503125e+05
    6.5178787336e-03    1.0105302344e+05
    6.5371058881e-03    1.0106031250e+05
    6.5563363023e-03    1.0105993750e+05
    6.5755699761e-03    1.0106788281e+05
    6.5948092379e-03    1.0107285156e+05
    6.6140629351e-03    1.0107235156e+05
    6.6333152354e-03    1.0107065625e+05
    6.6525745206e-03    1.0106787500e+05
    6.6718445159e-03    1.0106407031e+05
    6.6911154427e-03    1.0106411719e+05
    6.7104012705e-03    1.0106366406e+05
    6.7296870984e-03    1.0106746094e+05
    6.7489854991e-03    1.0107110156e+05
    6.7682852969e-03    1.0107447656e+05
    6.7875892855e-03    1.0106838281e+05
    6.8069072440e-03    1.0106633594e+05
    6.8262196146e-03    1.0106372656e+05
    6.8455408327e-03    1.0106536719e+05
    6.8648783490e-03    1.0106453906e+05
    6.8842126057e-03    1.0105915625e+05
    6.9035501219e-03    1.0106052344e+05
    6.9228983484e-03    1.0106174219e+05
    6.9422605447e-03    1.0106281250e+05
    6.9616222754e-03    1.0106327344e+05
    6.9809844717e-03    1.0105397656e+05
    7.0003494620e-03    1.0105321094e+05
    7.0197195746e-03    1.0104296094e+05
    7.0390999317e-03    1.0104410156e+05
    7.0584909990e-03    1.0104777344e+05
    7.0778946392e-03    1.0104725781e+05
    7.0973108523e-03    1.0104935156e+05
    7.1167377755e-03    1.0104950781e+05
    7.1361698210e-03    1.0105455469e+05
    7.1556069888e-03    1.0106209375e+05
    7.1750483476e-03    1.0106047656e+05
    7.1944966912e-03    1.0105634375e+05
    7.2139529511e-03    1.0105189844e+05
    7.2334166616e-03    1.0105183594e+05
    7.2528840974e-03    1.0105177344e+05
    7.2723543271e-03    1.0105421875e+05
    7.2918278165e-03    1.0106158594e+05
    7.3113050312e-03    1.0106250000e+05
    7.3307845742e-03    1.0106385156e+05
    7.3502692394e-03    1.0107252344e+05
    7.3697618209e-03    1.0107713281e+05
    7.3892641813e-03    1.0108010156e+05
    7.4087800458e-03    1.0108844531e+05
    7.4282912537e-03    1.0109597656e+05
    7.4477996677e-03    1.0110987500e+05
    7.4673094787e-03    1.0113087500e+05
    7.4868267402e-03    1.0115502344e+05
    7.5063589029e-03    1.0118514844e+05
    7.5258887373e-03    1.0122083594e+05
    7.5454111211e-03    1.0126614844e+05
    7.5649353676e-03    1.0131603906e+05
    7.5844703242e-03    1.0138138281e+05
    7.6040057465e-03    1.0145164844e+05
    7.6235276647e-03    1.0154110156e+05
    7.6430505142e-03    1.0164200000e+05
    7.6625877991e-03    1.0174846094e+05
    7.6821087860e-03    1.0186810156e+05
    7.7016241848e-03    1.0198860156e+05
    7.7211544849e-03    1.0212167969e+05
    7.7406810597e-03    1.0225353906e+05
    7.7602043748e-03    1.0238741406e+05
    7.7797495760e-03    1.0251091406e+05
    7.7992938459e-03    1.0263400000e+05
    7.8188432381e-03    1.0274433594e+05
    7.8384252265e-03    1.0284202344e+05
    7.8580006957e-03    1.0292212500e+05
    7.8775910661e-03    1.0298739844e+05
    7.8972103074e-03    1.0303543750e+05
    7.9168286175e-03    1.0306189844e+05
    7.9364804551e-03    1.0308097656e+05
    7.9561360180e-03    1.0310471875e+05
    7.9758102074e-03    1.0315960156e+05
    7.9955114052e-03    1.0329921094e+05
    8.0152126029e-03    1.0362408594e+05
    8.0349491909e-03    1.0431428906e+05
    8.0546662211e-03    1.0565694531e+05
    8.0743944272e-03    1.0809036719e+05
    8.0941170454e-03    1.1214586719e+05
    8.1138620153e-03    1.1826296094e+05
    8.1336386502e-03    1.2654930469e+05
    8.1534720957e-03    1.3639692188e+05
    8.1733558327e-03    1.4649185938e+05
    8.1932730973e-03    1.5516282812e+05
    8.2132071257e-03    1.6108226562e+05
    8.2330890000e-03    1.6387246875e+05
    8.2529615611e-03    1.6399700000e+05
    8.2727763802e-03    1.6242690625e+05
    8.2926023751e-03    1.6009631250e+05
    8.3124246448e-03    1.5783106250e+05
    8.3322748542e-03    1.5598043750e+05
    8.3521194756e-03    1.5459353125e+05
    8.3719678223e-03    1.5354117188e+05
    8.3917891607e-03    1.5259448438e+05
    8.4116021171e-03    1.5153464062e+05
    8.4314141423e-03    1.5023825000e+05
    8.4512168542e-03    1.4868245312e+05
    8.4710381925e-03    1.4694471875e+05
    8.4908353165e-03    1.4511578125e+05
    8.5106678307e-03    1.4332762500e+05
    8.5304882377e-03    1.4164929688e+05
    8.5503393784e-03    1.4011964062e+05
    8.5699046031e-03    1.3872078125e+05
    8.5892248899e-03    1.3745996875e+05
    8.6083402857e-03    1.3629668750e+05
    8.6272666231e-03    1.3519170312e+05
    8.6460309103e-03    1.3413251562e+05
    8.6646731943e-03    1.3310267188e+05
    8.6832325906e-03    1.3210896875e+05
    8.7017398328e-03    1.3115507812e+05
    8.7202098221e-03    1.3025507031e+05
    8.7386453524e-03    1.2940302344e+05
    8.7570473552e-03    1.2861775000e+05
    8.7753897533e-03    1.2789141406e+05
    8.7936492637e-03    1.2723010156e+05
    8.8118780404e-03    1.2661128906e+05
    8.8300397620e-03    1.2603703906e+05
    8.8481390849e-03    1.2549034375e+05
    8.8662039489e-03    1.2496091406e+05
    8.8842641562e-03    1.2444317969e+05
    8.9023411274e-03    1.2393603906e+05
    8.9204348624e-03    1.2343596094e+05
    8.9385388419e-03    1.2294691406e+05
    8.9566456154e-03    1.2247653125e+05
    8.9747514576e-03    1.2201808594e+05
    8.9928600937e-03    1.2158660156e+05
    9.0109808370e-03    1.2117349219e+05
    9.0291155502e-03    1.2077499219e+05
    9.0472688898e-03    1.2039560156e+05
    9.0654399246e-03    1.2003993750e+05
    9.0836230665e-03    1.1970000781e+05
    9.1018192470e-03    1.1937506250e+05
    9.1200266033e-03    1.1907389844e+05
    9.1382460669e-03    1.1879121875e+05
    9.1564757749e-03    1.1852941406e+05
    9.1747231781e-03    1.1828140625e+05
    9.1929892078e-03    1.1805878906e+05
    9.2112747952e-03    1.1784706250e+05
    9.2295790091e-03    1.1766252344e+05
    9.2479009181e-03    1.1748572656e+05
    9.2662386596e-03    1.1732537500e+05
    9.2845931649e-03    1.1717360156e+05
    9.3029672280e-03    1.1703325000e+05
    9.3213599175e-03    1.1688621094e+05
    9.3397712335e-03    1.1675103125e+05
    9.3582011759e-03    1.1660760156e+05
    9.3766497448e-03    1.1647137500e+05
    9.3951150775e-03    1.1633816406e+05
    9.4135999680e-03    1.1620991406e+05
    9.4321016222e-03    1.1607508594e+05
    9.4506228343e-03    1.1594847656e+05
    9.4691645354e-03    1.1582709375e+05
    9.4877239317e-03    1.1570655469e+05
    9.5063010231e-03    1.1558477344e+05
    9.5248948783e-03    1.1546235156e+05
    9.5435054973e-03    1.1533866406e+05
    9.5621328801e-03    1.1520747656e+05
    9.5807760954e-03    1.1507291406e+05
    9.5994332805e-03    1.1493735156e+05
    9.6181081608e-03    1.1479491406e+05
    9.6367979422e-03    1.1466027344e+05
    9.6555035561e-03    1.1451819531e+05
    9.6742231399e-03    1.1438071094e+05
    9.6929576248e-03    1.1424043750e+05
    9.7117051482e-03    1.1410314844e+05
    9.7304685041e-03    1.1396646094e+05
    9.7492448986e-03    1.1383327344e+05
    9.7680361941e-03    1.1369850781e+05
    9.7868405282e-03    1.1356010156e+05
    9.8056588322e-03    1.1342853125e+05
    9.8244920373e-03    1.1328897656e+05
    9.8433364183e-03    1.1315259375e+05
    9.8621929064e-03    1.1301138281e+05
    9.8810633644e-03    1.1286639844e+05
    9.8999459296e-03    1.1271832031e+05
    9.9188406020e-03    1.1256858594e+05
    9.9377483130e-03    1.1242050000e+05
    9.9566690624e-03    1.1228222656e+05
    9.9756028503e-03    1.1214117969e+05
    9.9945487455e-03    1.1200538281e+05
    1.0013507679e-02    1.1187646094e+05
    1.0032479651e-02    1.1176177344e+05
    1.0051463731e-02    1.1165000781e+05
    1.0070459917e-02    1.1155375000e+05
    1.0089469142e-02    1.1146575000e+05
    1.0108492337e-02    1.1138556250e+05
    1.0127528571e-02    1.1132739844e+05
    1.0146577843e-02    1.1127353125e+05
    1.0165639222e-02    1.1123227344e+05
    1.0184712708e-02    1.1119400000e+05
    1.0203798302e-02    1.1116503906e+05
    1.0222896002e-02    1.1113528906e+05
    1.0242006741e-02    1.1111300000e+05
    1.0261129588e-02    1.1108861719e+05
    1.0280264542e-02    1.1106032031e+05
    1.0299413465e-02    1.1103031250e+05
    1.0318575427e-02    1.1100496094e+05
    1.0337748565e-02    1.1096856250e+05
    1.0356934741e-02    1.1092052344e+05
    1.0376133956e-02    1.1087796094e+05
    1.0395346209e-02    1.1082433594e+05
    1.0414571501e-02    1.1076441406e+05
    1.0433809832e-02    1.1070150000e+05
    1.0453061201e-02    1.1063528906e+05
    1.0472324677e-02    1.1057840625e+05
    1.0491601191e-02    1.1051625781e+05
    1.0510892607e-02    1.1046307031e+05
    1.0530196130e-02    1.1041346094e+05
    1.0549513623e-02    1.1036784375e+05
    1.0568842292e-02    1.1032446875e+05
    1.0588183999e-02    1.1028422656e+05
    1.0607538745e-02    1.1024584375e+05
    1.0626907460e-02    1.1021618750e+05
    1.0646289214e-02    1.1018662500e+05
    1.0665684007e-02    1.1016062500e+05
    1.0685092770e-02    1.1012328906e+05
    1.0704516433e-02    1.1007958594e+05
    1.0723951273e-02    1.1003181250e+05
    1.0743400082e-02    1.0998402344e+05
    1.0762862861e-02    1.0992480469e+05
    1.0782338679e-02    1.0987146875e+05
    1.0801829398e-02    1.0981442969e+05
    1.0821334086e-02    1.0974903906e+05
    1.0840852745e-02    1.0968684375e+05
    1.0860386305e-02    1.0962531250e+05
    1.0879932903e-02    1.0956671875e+05
    1.0899493471e-02    1.0951346094e+05
    1.0919069871e-02    1.0946950781e+05
    1.0938662104e-02    1.0942091406e+05
    1.0958270170e-02    1.0937644531e+05
    1.0977892205e-02    1.0933113281e+05
    1.0997531936e-02    1.0928160156e+05
    1.1017187499e-02    1.0923468750e+05
    1.1036860757e-02    1.0919593750e+05
    1.1056551710e-02    1.0914864844e+05
    1.1076259427e-02    1.0910327344e+05
    1.1095987633e-02    1.0906316406e+05
    1.1115733534e-02    1.0901437500e+05
    1.1135498993e-02    1.0896343750e+05
    1.1155283079e-02    1.0890391406e+05
    1.1175086722e-02    1.0883872656e+05
    1.1194912717e-02    1.0876841406e+05
    1.1214758269e-02    1.0869813281e+05
    1.1234625243e-02    1.0862400000e+05
    1.1254511774e-02    1.0854538281e+05
    1.1274418794e-02    1.0847442969e+05
    1.1294347234e-02    1.0839203125e+05
    1.1314296164e-02    1.0831313281e+05
    1.1334266514e-02    1.0823167969e+05
    1.1354257353e-02    1.0814728906e+05
    1.1374268681e-02    1.0806962500e+05
    1.1394302361e-02    1.0798515625e+05
    1.1414355598e-02    1.0790438281e+05
    1.1434430256e-02    1.0782450781e+05
    1.1454525404e-02    1.0773916406e+05
    1.1474640109e-02    1.0765846094e+05
    1.1494777165e-02    1.0757777344e+05
    1.1514934711e-02    1.0749531250e+05
    1.1535113677e-02    1.0742146875e+05
    1.1555313133e-02    1.0734183594e+05
    1.1575534008e-02    1.0727547656e+05
    1.1595774442e-02    1.0720541406e+05
    1.1616035365e-02    1.0713352344e+05
    1.1636316776e-02    1.0706578906e+05
    1.1656619608e-02    1.0700578125e+05
    1.1676942930e-02    1.0693980469e+05
    1.1697287671e-02    1.0688310156e+05
    1.1717652902e-02    1.0682606250e+05
    1.1738038622e-02    1.0677436719e+05
    1.1758443899e-02    1.0672555469e+05
    1.1778870597e-02    1.0668221875e+05
    1.1799318716e-02    1.0664081250e+05
    1.1819788255e-02    1.0659508594e+05
    1.1840280145e-02    1.0654764844e+05
    1.1860790662e-02    1.0650322656e+05
    1.1881321669e-02    1.0645003125e+05
    1.1901874095e-02    1.0639711719e+05
    1.1922447011e-02    1.0633664844e+05
    1.1943042278e-02    1.0627716406e+05
    1.1963658035e-02    1.0621271094e+05
    1.1984295212e-02    1.0614775000e+05
    1.2004952878e-02    1.0608896875e+05
    1.2025631964e-02    1.0603842969e+05
    1.2046331540e-02    1.0598572656e+05
    1.2067052536e-02    1.0595084375e+05
    1.2087795883e-02    1.0591325000e+05
    1.2108558789e-02    1.0587725781e+05
    1.2129344046e-02    1.0584508594e+05
    1.2150149792e-02    1.0580425000e+05
    1.2170976959e-02    1.0577050781e+05
    1.2191825546e-02    1.0572747656e+05
    1.2212695554e-02    1.0567588281e+05
    1.2233586982e-02    1.0562347656e+05
    1.2254500762e-02    1.0556355469e+05
    1.2275436893e-02    1.0550081250e+05
    1.2296394445e-02    1.0543085156e+05
    1.2317374349e-02    1.0535094531e+05
    1.2338375673e-02    1.0526502344e+05
    1.2359398417e-02    1.0517484375e+05
    1.2380442582e-02    1.0507774219e+05
    1.2401508167e-02    1.0498380469e+05
    1.2422595173e-02    1.0489117969e+05
    1.2443703599e-02    1.0480108594e+05
    1.2464834377e-02    1.0472330469e+05
    1.2485986575e-02    1.0465641406e+05
    1.2507158332e-02    1.0459310156e+05
    1.2528351508e-02    1.0454374219e+05
    1.2549565174e-02    1.0450156250e+05
    1.2570801191e-02    1.0447288281e+05
    1.2592058629e-02    1.0445412500e+05
    1.2613337487e-02    1.0445253125e+05
    1.2634636834e-02    1.0444982031e+05
    1.2655957602e-02    1.0444932031e+05
    1.2677297927e-02    1.0444316406e+05
    1.2698660605e-02    1.0442666406e+05
    1.2720043771e-02    1.0440465625e+05
    1.2741449289e-02    1.0437481250e+05
    1.2762876227e-02    1.0433558594e+05
    1.2784325518e-02    1.0428524219e+05
    1.2805794366e-02    1.0423584375e+05
    1.2827285565e-02    1.0417739844e+05
    1.2848797254e-02    1.0411239844e+05
    1.2870330364e-02    1.0405233594e+05
    1.2891885825e-02    1.0399132031e+05
    1.2913462706e-02    1.0394883594e+05
    1.2935061008e-02    1.0391166406e+05
    1.2956679799e-02    1.0388083594e+05
    1.2978320010e-02    1.0385285156e+05
    1.2999981642e-02    1.0382539844e+05
    1.3021663763e-02    1.0380330469e+05
    1.3043368235e-02    1.0378565625e+05
    1.3065092266e-02    1.0377244531e+05
    1.3086837716e-02    1.0376062500e+05
    1.3108605519e-02    1.0375014844e+05
    1.3130392879e-02    1.0373290625e+05
    1.3152201660e-02    1.0370891406e+05
    1.3174032792e-02    1.0368399219e+05
    1.3195885345e-02    1.0365710156e+05
    1.3217759319e-02    1.0363310156e+05
    1.3239653781e-02    1.0359349219e+05
    1.3261569664e-02    1.0356012500e+05
    1.3283506967e-02    1.0351812500e+05
    1.3305463828e-02    1.0347168750e+05
    1.3327440247e-02    1.0342258594e+05
    1.3349435292e-02    1.0336922656e+05
    1.3371448033e-02    1.0332268750e+05
    1.3393475674e-02    1.0327425000e+05
    1.3415516354e-02    1.0323496094e+05
    1.3437564485e-02    1.0320696094e+05
    1.3459613547e-02    1.0319783594e+05
    1.3481658883e-02    1.0320600000e+05
    1.3503690250e-02    1.0324968750e+05
    1.3525702059e-02    1.0334228125e+05
    1.3547683135e-02    1.0349403125e+05
    1.3569628820e-02    1.0371110156e+05
    1.3591531664e-02    1.0401466406e+05
    1.3613392599e-02    1.0441366406e+05
    1.3635210693e-02    1.0493383594e+05
    1.3656994328e-02    1.0557832031e+05
    1.3678749092e-02    1.0634203125e+05
    1.3700488023e-02    1.0721192969e+05
    1.3722228818e-02    1.0815162500e+05
    1.3743981719e-02    1.0911285156e+05
    1.3765762560e-02    1.1003814844e+05
    1.3787578791e-02    1.1086021094e+05
    1.3809437864e-02    1.1151058594e+05
    1.3831341639e-02    1.1194502344e+05
    1.3853288256e-02    1.1214502344e+05
    1.3875273056e-02    1.1210469531e+05
    1.3897285797e-02    1.1184321875e+05
    1.3919321820e-02    1.1139412500e+05
    1.3941374607e-02    1.1080353125e+05
    1.3963440433e-02    1.1012481250e+05
    1.3985517435e-02    1.0939863281e+05
    1.4007603750e-02    1.0868275000e+05
    1.4029704034e-02    1.0802722656e+05
    1.4051820152e-02    1.0746885156e+05
    1.4073957689e-02    1.0700733594e+05
    1.4096121304e-02    1.0664905469e+05
    1.4118315652e-02    1.0637291406e+05
    1.4140545391e-02    1.0613727344e+05
    1.4162814245e-02    1.0591302344e+05
    1.4185124077e-02    1.0566161719e+05
    1.4207473956e-02    1.0536184375e+05
    1.4229862019e-02    1.0499840625e+05
    1.4252286404e-02    1.0457671094e+05
    1.4274741523e-02    1.0410672656e+05
    1.4297228307e-02    1.0361712500e+05
    1.4319745824e-02    1.0312119531e+05
    1.4342290349e-02    1.0264694531e+05
    1.4364863746e-02    1.0222262500e+05
    1.4387467876e-02    1.0185897656e+05
    1.4410103671e-02    1.0156932031e+05
    1.4432771131e-02    1.0135021094e+05
    1.4455472119e-02    1.0121046094e+05
    1.4478209428e-02    1.0113008594e+05
    1.4500979334e-02    1.0111299219e+05
    1.4523783699e-02    1.0112463281e+05
    1.4546621591e-02    1.0117457031e+05
    1.4569494873e-02    1.0123765625e+05
    1.4592399821e-02    1.0130400781e+05
    1.4615339227e-02    1.0136450000e+05
    1.4638305642e-02    1.0141177344e+05
    1.4661304653e-02    1.0143691406e+05
    1.4684336260e-02    1.0143900781e+05
    1.4707398601e-02    1.0142647656e+05
    1.4730494469e-02    1.0139419531e+05
    1.4753622934e-02    1.0135408594e+05
    1.4776783995e-02    1.0130634375e+05
    1.4799979515e-02    1.0126367969e+05
    1.4823205769e-02    1.0122566406e+05
    1.4846466482e-02    1.0119944531e+05
    1.4869757928e-02    1.0118640625e+05
    1.4893081971e-02    1.0118310156e+05
    1.4916437678e-02    1.0119167969e+05
    1.4939822257e-02    1.0121285156e+05
    1.4963239431e-02    1.0124724219e+05
    1.4986685477e-02    1.0129128906e+05
    1.5010161325e-02    1.0134721094e+05
    1.5033668838e-02    1.0141678906e+05
    1.5057205223e-02    1.0147912500e+05
    1.5080772340e-02    1.0154766406e+05
    1.5104367398e-02    1.0160708594e+05
    1.5127992257e-02    1.0165571094e+05
    1.5151646920e-02    1.0169183594e+05
    1.5175330453e-02    1.0171168750e+05
    1.5199041925e-02    1.0171621094e+05
    1.5222782269e-02    1.0172446094e+05
    1.5246548690e-02    1.0172350781e+05
    1.5270343982e-02    1.0172488281e+05
    1.5294168144e-02    1.0174089844e+05
    1.5318016522e-02    1.0176603125e+05
    1.5341891907e-02    1.0179422656e+05
    1.5365792438e-02    1.0183952344e+05
    1.5389721841e-02    1.0188081250e+05
    1.5413676389e-02    1.0191752344e+05
    1.5437657945e-02    1.0195485156e+05
    1.5461664647e-02    1.0197889844e+05
    1.5485695563e-02    1.0198396094e+05
    1.5509752557e-02    1.0198397656e+05
    1.5533835627e-02    1.0197849219e+05
    1.5557944775e-02    1.0196474219e+05
    1.5582079068e-02    1.0194891406e+05
    1.5606240369e-02    1.0194319531e+05
    1.5630424023e-02    1.0193460156e+05
    1.5654634684e-02    1.0192940625e+05
    1.5678871423e-02    1.0192738281e+05
    1.5703132376e-02    1.0193821875e+05
    1.5727419406e-02    1.0194127344e+05
    1.5751728788e-02    1.0194977344e+05
    1.5776060522e-02    1.0195362500e+05
    1.5800418332e-02    1.0194958594e+05
    1.5824800357e-02    1.0194122656e+05
    1.5849204734e-02    1.0193384375e+05
    1.5873633325e-02    1.0192678906e+05
    1.5898084268e-02    1.0191725000e+05
    1.5922557563e-02    1.0190833594e+05
    1.5947058797e-02    1.0189044531e+05
    1.5971582383e-02    1.0187021094e+05
    1.5996130183e-02    1.0183988281e+05
    1.6020702198e-02    1.0180678125e+05
    1.6045298427e-02    1.0177635156e+05
    1.6069920734e-02    1.0174967969e+05
    1.6094569117e-02    1.0172377344e+05
    1.6119243577e-02    1.0170299219e+05
    1.6143942252e-02    1.0167910156e+05
    1.6168667004e-02    1.0165690625e+05
    1.6193419695e-02    1.0163718750e+05
    1.6218200326e-02    1.0161778125e+05
    1.6243007034e-02    1.0160285156e+05
    1.6267839819e-02    1.0158762500e+05
    1.6292702407e-02    1.0157672656e+05
    1.6317596659e-02    1.0156306250e+05
    1.6342513263e-02    1.0154390625e+05
    1.6367461532e-02    1.0151943750e+05
    1.6392435879e-02    1.0147650781e+05
    1.6417443752e-02    1.0144022656e+05
    1.6442479566e-02    1.0139471094e+05
    1.6467543319e-02    1.0135202344e+05
    1.6492636874e-02    1.0129987500e+05
    1.6517756507e-02    1.0124100781e+05
    1.6542907804e-02    1.0117153906e+05
    1.6568088904e-02    1.0109371094e+05
    1.6593271866e-02    1.0101417969e+05
    1.6618426889e-02    1.0092210156e+05
    1.6643559560e-02    1.0082649219e+05
    1.6668669879e-02    1.0071753906e+05
    1.6693757847e-02    1.0059766406e+05
    1.6718825325e-02    1.0046492969e+05
    1.6743874177e-02    1.0032663281e+05
    1.6768900678e-02    1.0018921094e+05
    1.6793908551e-02    1.0005355469e+05
    1.6818899661e-02    9.9914601562e+04
    1.6843874007e-02    9.9779039062e+04
    1.6868829727e-02    9.9651351562e+04
    1.6893770546e-02    9.9538304688e+04
    1.6918692738e-02    9.9441289062e+04
    1.6943598166e-02    9.9360351562e+04
    1.6968490556e-02    9.9293335938e+04
    1.6993366182e-02    9.9249226562e+04
    1.7018226907e-02    9.9234476562e+04
    1.7043072730e-02    9.9237382812e+04
    1.7067901790e-02    9.9269429688e+04
    1.7092714086e-02    9.9319875000e+04
    1.7117511481e-02    9.9385617188e+04
    1.7142292112e-02    9.9468273438e+04
    1.7167057842e-02    9.9555937500e+04
    1.7191808671e-02    9.9657335938e+04
    1.7216544598e-02    9.9755406250e+04
    1.7241263762e-02    9.9849632812e+04
    1.7265968025e-02    9.9947585938e+04
    1.7290659249e-02    1.0003738281e+05
    1.7315333709e-02    1.0011000000e+05
    1.7339993268e-02    1.0017303906e+05
    1.7364639789e-02    1.0022011719e+05
    1.7389267683e-02    1.0025482031e+05
    1.7413880676e-02    1.0028253906e+05
    1.7438478768e-02    1.0030153125e+05
    1.7463061959e-02    1.0031416406e+05
    1.7487626523e-02    1.0031607031e+05
    1.7512176186e-02    1.0031724219e+05
    1.7536709085e-02    1.0031825000e+05
    1.7561223358e-02    1.0031703125e+05
    1.7585720867e-02    1.0031583594e+05
    1.7610201612e-02    1.0031700781e+05
    1.7634663731e-02    1.0030924219e+05
    1.7659107223e-02    1.0030046094e+05
    1.7683532089e-02    1.0029541406e+05
    1.7707940191e-02    1.0029464844e+05
    1.7732329667e-02    1.0028878906e+05
    1.7756698653e-02    1.0028391406e+05
    1.7781050876e-02    1.0028212500e+05
    1.7805384472e-02    1.0026980469e+05
    1.7829699442e-02    1.0026403125e+05
    1.7853999510e-02    1.0026094531e+05
    1.7878280953e-02    1.0025728906e+05
    1.7902545631e-02    1.0026707031e+05
    1.7926793545e-02    1.0026758594e+05
    1.7951028422e-02    1.0027028125e+05
    1.7975246534e-02    1.0027419531e+05
    1.7999447882e-02    1.0028166406e+05
    1.8023636192e-02    1.0029221094e+05
    1.8047811463e-02    1.0030381250e+05
    1.8071975559e-02    1.0032667969e+05
    1.8096126616e-02    1.0034240625e+05
    1.8120266497e-02    1.0036865625e+05
    1.8144397065e-02    1.0038772656e+05
    1.8168520182e-02    1.0040646094e+05
    1.8192630261e-02    1.0042224219e+05
    1.8216732889e-02    1.0043675781e+05
    1.8240824342e-02    1.0044287500e+05
    1.8264908344e-02    1.0044478125e+05
    1.8288983032e-02    1.0044696094e+05
    1.8313048407e-02    1.0044628125e+05
    1.8337102607e-02    1.0044346094e+05
    1.8361147493e-02    1.0043403906e+05
    1.8385183066e-02    1.0043060156e+05
    1.8409207463e-02    1.0042368750e+05
    1.8433224410e-02    1.0042310156e+05
    1.8457230181e-02    1.0043011719e+05
    1.8481226638e-02    1.0044559375e+05
    1.8505210057e-02    1.0047010156e+05
    1.8529184163e-02    1.0050821875e+05
    1.8553148955e-02    1.0055481250e+05
    1.8577100709e-02    1.0061433594e+05
    1.8601041287e-02    1.0068111719e+05
    1.8624972552e-02    1.0075735156e+05
    1.8648892641e-02    1.0084109375e+05
    1.8672801554e-02    1.0093375000e+05
    1.8696699291e-02    1.0102069531e+05
    1.8720587716e-02    1.0110808594e+05
    1.8744463101e-02    1.0118384375e+05
    1.8768329173e-02    1.0125135156e+05
    1.8792184070e-02    1.0130884375e+05
    1.8816027790e-02    1.0135544531e+05
    1.8839860335e-02    1.0138527344e+05
    1.8863683566e-02    1.0140244531e+05
    1.8887493759e-02    1.0140588281e+05
    1.8911294639e-02    1.0140546875e+05
    1.8935086206e-02    1.0140328906e+05
    1.8958866596e-02    1.0139239844e+05
    1.8982635811e-02    1.0138408594e+05
    1.9006397575e-02    1.0137819531e+05
    1.9030146301e-02    1.0136878906e+05
    1.9053885713e-02    1.0137071094e+05
    1.9077615812e-02    1.0137528125e+05
    1.9101334736e-02    1.0138203906e+05
    1.9125042483e-02    1.0140068750e+05
    1.9148740917e-02    1.0142593750e+05
    1.9172428176e-02    1.0146494531e+05
    1.9196104258e-02    1.0150586719e+05
    1.9219771028e-02    1.0156041406e+05
    1.9243424758e-02    1.0163062500e+05
    1.9267069176e-02    1.0171444531e+05
    1.9290700555e-02    1.0180572656e+05
    1.9314322621e-02    1.0190933594e+05
    1.9337931648e-02    1.0202396094e+05
    1.9361529499e-02    1.0214781250e+05
    1.9385114312e-02    1.0228632031e+05
    1.9408687949e-02    1.0243241406e+05
    1.9432250410e-02    1.0258127344e+05
    1.9455801696e-02    1.0273416406e+05
    1.9479339942e-02    1.0287166406e+05
    1.9502865151e-02    1.0300367969e+05
    1.9526379183e-02    1.0312171094e+05
    1.9549878314e-02    1.0321474219e+05
    1.9573366269e-02    1.0328347656e+05
    1.9596841186e-02    1.0331691406e+05
    1.9620303065e-02    1.0332172656e+05
    1.9643751904e-02    1.0329096094e+05
    1.9667187706e-02    1.0323246094e+05
    1.9690606743e-02    1.0313202344e+05
    1.9714014605e-02    1.0301022656e+05
    1.9737409428e-02    1.0285197656e+05
    1.9760791212e-02    1.0266821094e+05
    1.9784159958e-02    1.0246333594e+05
    1.9807513803e-02    1.0223446875e+05
    1.9830854610e-02    1.0198497656e+05
    1.9854182377e-02    1.0174033594e+05
    1.9877497107e-02    1.0149650000e+05
    1.9900798798e-02    1.0127710156e+05
    1.9924087450e-02    1.0108127344e+05
    1.9947361201e-02    1.0091412500e+05
    1.9970623776e-02    1.0077372656e+05
    1.9993871450e-02    1.0067430469e+05
    2.0017107949e-02    1.0059857031e+05
    2.0040329546e-02    1.0056003125e+05
    2.0063538104e-02    1.0054422656e+05
    2.0086731762e-02    1.0055089844e+05
    2.0109914243e-02    1.0057400781e+05
    2.0133081824e-02    1.0060277344e+05
    2.0156236365e-02    1.0063674219e+05
    2.0179376006e-02    1.0067590625e+05
    2.0202504471e-02    1.0071506250e+05
    2.0225618035e-02    1.0075774219e+05
    2.0248720422e-02    1.0079096094e+05
    2.0271807909e-02    1.0081738281e+05
    2.0294882357e-02    1.0085003906e+05
    2.0317947492e-02    1.0088024219e+05
    2.0340997726e-02    1.0090961719e+05
    2.0364036784e-02    1.0093449219e+05
    2.0387060940e-02    1.0096460156e+05
    2.0410073921e-02    1.0099828906e+05
    2.0433073863e-02    1.0103400000e+05
    2.0456060767e-02    1.0107453125e+05
    2.0479036495e-02    1.0112391406e+05
    2.0501999184e-02    1.0118440625e+05
    2.0524948835e-02    1.0124189844e+05
    2.0547885448e-02    1.0131192969e+05
    2.0570809022e-02    1.0138733594e+05
    2.0593719557e-02    1.0146964844e+05
    2.0616617054e-02    1.0156350000e+05
    2.0639499649e-02    1.0166310156e+05
    2.0662369207e-02    1.0176741406e+05
    2.0685223863e-02    1.0187328125e+05
    2.0708063617e-02    1.0196989844e+05
    2.0730890334e-02    1.0207453906e+05
    2.0753700286e-02    1.0216784375e+05
    2.0776495337e-02    1.0225893750e+05
    2.0799275488e-02    1.0234774219e+05
    2.0822042599e-02    1.0243050781e+05
    2.0844791085e-02    1.0250181250e+05
    2.0867524669e-02    1.0257374219e+05
    2.0890241489e-02    1.0263746094e+05
    2.0912945271e-02    1.0269628125e+05
    2.0935632288e-02    1.0275321094e+05
    2.0958306268e-02    1.0280438281e+05
    2.0980965346e-02    1.0284844531e+05
    2.1003607661e-02    1.0288636719e+05
    2.1026238799e-02    1.0292550781e+05
    2.1048855036e-02    1.0295439844e+05
    2.1071458235e-02    1.0298063281e+05
    2.1094048396e-02    1.0299706250e+05
    2.1116625518e-02    1.0300967969e+05
    2.1139191464e-02    1.0301031250e+05
    2.1161744371e-02    1.0300789844e+05
    2.1184286103e-02    1.0300010156e+05
    2.1206818521e-02    1.0298841406e+05
    2.1229337901e-02    1.0296941406e+05
    2.1251846105e-02    1.0294305469e+05
    2.1274344996e-02    1.0292110156e+05
    2.1296832711e-02    1.0289697656e+05
    2.1319312975e-02    1.0287190625e+05
    2.1341778338e-02    1.0284358594e+05
    2.1364232525e-02    1.0280964844e+05
    2.1386675537e-02    1.0276911719e+05
    2.1409107372e-02    1.0272903125e+05
    2.1431528032e-02    1.0268542969e+05
    2.1453931928e-02    1.0263218750e+05
    2.1476324648e-02    1.0258440625e+05
    2.1498700604e-02    1.0253434375e+05
    2.1521063522e-02    1.0247025000e+05
    2.1543409675e-02    1.0241171094e+05
    2.1565740928e-02    1.0234028906e+05
    2.1588053554e-02    1.0226989844e+05
    2.1610351279e-02    1.0219383594e+05
    2.1632634103e-02    1.0211733594e+05
    2.1654898301e-02    1.0203866406e+05
    2.1677147597e-02    1.0196538281e+05
    2.1699378267e-02    1.0189147656e+05
    2.1721594036e-02    1.0182064844e+05
    2.1743793041e-02    1.0174996094e+05
    2.1765975282e-02    1.0168685156e+05
    2.1788140759e-02    1.0162289844e+05
    2.1810289472e-02    1.0157006250e+05
    2.1832419559e-02    1.0152286719e+05
    2.1854531020e-02    1.0148182031e+05
    2.1876627579e-02    1.0144278906e+05
    2.1898705512e-02    1.0141846875e+05
    2.1920768544e-02    1.0139760156e+05
    2.1942811087e-02    1.0137809375e+05
    2.1964838728e-02    1.0136661719e+05
    2.1986849606e-02    1.0135660156e+05
    2.2008845583e-02    1.0134764844e+05
    2.2030822933e-02    1.0134610156e+05
    2.2052785382e-02    1.0134881250e+05
    2.2074732929e-02    1.0135671094e+05
    2.2096665576e-02    1.0136852344e+05
    2.2118583322e-02    1.0137814844e+05
    2.2140489891e-02    1.0138047656e+05
    2.2162377834e-02    1.0139267969e+05
    2.2184254602e-02    1.0140566406e+05
    2.2206118330e-02    1.0141675000e+05
    2.2227969021e-02    1.0142547656e+05
    2.2249806672e-02    1.0143264844e+05
    2.2271629423e-02    1.0144171875e+05
    2.2293440998e-02    1.0144891406e+05
    2.2315241396e-02    1.0145268750e+05
    2.2337028757e-02    1.0146109375e+05
    2.2358803079e-02    1.0146264844e+05
    2.2380566224e-02    1.0146025781e+05
    2.2402318195e-02    1.0145971094e+05
    2.2424057126e-02    1.0145515625e+05
    2.2445784882e-02    1.0145122656e+05
    2.2467501462e-02    1.0144427344e+05
    2.2489206865e-02    1.0144058594e+05
    2.2510899231e-02    1.0143799219e+05
    2.2532582283e-02    1.0143446094e+05
    2.2554252297e-02    1.0143372656e+05
    2.2575911134e-02    1.0143964844e+05
    2.2597560659e-02    1.0144046094e+05
    2.2619199008e-02    1.0143971094e+05
    2.2640828043e-02    1.0145109375e+05
    2.2662445903e-02    1.0145308594e+05
    2.2684050724e-02    1.0145655469e+05
    2.2705646232e-02    1.0146855469e+05
    2.2727232426e-02    1.0147272656e+05
    2.2748809308e-02    1.0147360156e+05
    2.2770375013e-02    1.0148136719e+05
    2.2791929543e-02    1.0148858594e+05
    2.2813472897e-02    1.0149137500e+05
    2.2835006937e-02    1.0149664844e+05
    2.2856531665e-02    1.0149852344e+05
    2.2878047079e-02    1.0149916406e+05
    2.2899549454e-02    1.0150091406e+05
    2.2921044379e-02    1.0150611719e+05
    2.2942528129e-02    1.0151027344e+05
    2.2964000702e-02    1.0151200000e+05
    2.2985465825e-02    1.0151471875e+05
    2.3006917909e-02    1.0151503125e+05
    2.3028360680e-02    1.0151146094e+05
    2.3049792275e-02    1.0150692969e+05
    2.3071214557e-02    1.0151008594e+05
    2.3092625663e-02    1.0151203906e+05
    2.3114029318e-02    1.0151396875e+05
    2.3135419935e-02    1.0151560156e+05
    2.3156799376e-02    1.0151328125e+05
    2.3178169504e-02    1.0150457031e+05
    2.3199530318e-02    1.0150600000e+05
    2.3220879957e-02    1.0150982031e+05
    2.3242218420e-02    1.0151185156e+05
    2.3263547570e-02    1.0151766406e+05
    2.3284865543e-02    1.0151562500e+05
    2.3306174204e-02    1.0151447656e+05
    2.3327469826e-02    1.0152127344e+05
    2.3348756135e-02    1.0152525781e+05
    2.3370031267e-02    1.0153211719e+05
    2.3391297087e-02    1.0154053125e+05
    2.3412553594e-02    1.0154488281e+05
    2.3433798924e-02    1.0154814844e+05
    2.3455033079e-02    1.0155257031e+05
    2.3476256058e-02    1.0155964844e+05
    2.3497469723e-02    1.0156808594e+05
    2.3518672213e-02    1.0157658594e+05
    2.3539865389e-02    1.0158227344e+05
    2.3561049253e-02    1.0159522656e+05
    2.3582221940e-02    1.0160162500e+05
    2.3603385314e-02    1.0160803125e+05
    2.3624535650e-02    1.0161340625e+05
    2.3645676672e-02    1.0161774219e+05
    2.3666808382e-02    1.0162449219e+05
    2.3687927052e-02    1.0162884375e+05
    2.3709038273e-02    1.0163297656e+05
    2.3730138317e-02    1.0163667969e+05
    2.3751227185e-02    1.0163671094e+05
    2.3772306740e-02    1.0163984375e+05
    2.3793375120e-02    1.0163800000e+05
    2.3814432323e-02    1.0163760156e+05
    2.3835480213e-02    1.0163399219e+05
    2.3856516927e-02    1.0162506250e+05
    2.3877544329e-02    1.0161635156e+05
    2.3898560554e-02    1.0160852344e+05
    2.3919565603e-02    1.0159319531e+05
    2.3940561339e-02    1.0158393750e+05
    2.3961545900e-02    1.0157617969e+05
    2.3982519284e-02    1.0156572656e+05
    2.4003483355e-02    1.0155341406e+05
    2.4024436250e-02    1.0154753125e+05
    2.4045377970e-02    1.0153571094e+05
    2.4066310376e-02    1.0152427344e+05
    2.4087233469e-02    1.0151360156e+05
    2.4108145386e-02    1.0150583594e+05
    2.4129044265e-02    1.0148832031e+05
    2.4149935693e-02    1.0148075000e+05
    2.4170814082e-02    1.0147328906e+05
    2.4191683158e-02    1.0146738281e+05
    2.4212542921e-02    1.0146319531e+05
    2.4233391508e-02    1.0146639844e+05
    2.4254228920e-02    1.0146214844e+05
    2.4275057018e-02    1.0146060156e+05
    2.4295873940e-02    1.0146538281e+05
    2.4316681549e-02    1.0146367969e+05
    2.4337477982e-02    1.0146686719e+05
    2.4358265102e-02    1.0146741406e+05
    2.4379042909e-02    1.0147438281e+05
    2.4399809539e-02    1.0147728906e+05
    2.4420566857e-02    1.0147962500e+05
    2.4441312999e-02    1.0148958594e+05
    2.4462047964e-02    1.0149075781e+05
    2.4482775480e-02    1.0149328906e+05
    2.4503491819e-02    1.0149600781e+05
    2.4524198845e-02    1.0149883594e+05
    2.4544894695e-02    1.0150163281e+05
    2.4565581232e-02    1.0150200781e+05
    2.4586258456e-02    1.0150000781e+05
    2.4606924504e-02    1.0150019531e+05
    2.4627581239e-02    1.0150040625e+05
    2.4648228660e-02    1.0150049219e+05
    2.4668866768e-02    1.0149814844e+05
    2.4689495564e-02    1.0148863281e+05
    2.4710113183e-02    1.0148668750e+05
    2.4730721489e-02    1.0148438281e+05
    2.4751318619e-02    1.0148052344e+05
    2.4771906435e-02    1.0147278906e+05
    2.4792486802e-02    1.0146292969e+05
    2.4813055992e-02    1.0145615625e+05
    2.4833614007e-02    1.0144316406e+05
    2.4854162708e-02    1.0143797656e+05
    2.4874702096e-02    1.0143269531e+05
    2.4895232171e-02    1.0143205469e+05
    2.4915752932e-02    1.0142678906e+05
    2.4936262518e-02    1.0142392969e+05
    2.4956764653e-02    1.0141900781e+05
    2.4977253750e-02    1.0141540625e+05
    2.4997735396e-02    1.0141767969e+05
    2.5018205866e-02    1.0141950000e+05
    2.5038668886e-02    1.0141699219e+05
    2.5059120730e-02    1.0142046094e+05
    2.5079563260e-02    1.0142600781e+05
    2.5099996477e-02    1.0142984375e+05
    2.5120420381e-02    1.0144043750e+05
    2.5140833110e-02    1.0144527344e+05
    2.5161236525e-02    1.0145527344e+05
    2.5181630626e-02    1.0146588281e+05
    2.5202017277e-02    1.0146896094e+05
    2.5222390890e-02    1.0148044531e+05
    2.5242757052e-02    1.0148446875e+05
    2.5263112038e-02    1.0149939844e+05
    2.5283459574e-02    1.0150319531e+05
    2.5303795934e-02    1.0150708594e+05
    2.5324124843e-02    1.0150971094e+05
    2.5344440714e-02    1.0151442969e+05
    2.5364749134e-02    1.0151878125e+05
    2.5385048240e-02    1.0151833594e+05
    2.5405339897e-02    1.0151730469e+05
    2.5425618514e-02    1.0151113281e+05
    2.5445887819e-02    1.0151225000e+05
    2.5466147810e-02    1.0150563281e+05
    2.5486400351e-02    1.0149688281e+05
    2.5506639853e-02    1.0148468750e+05
    2.5526873767e-02    1.0147127344e+05
    2.5547094643e-02    1.0145671875e+05
    2.5567308068e-02    1.0144577344e+05
    2.5587510318e-02    1.0143050000e+05
    2.5607703254e-02    1.0141747656e+05
    2.5627886876e-02    1.0139641406e+05
    2.5648061186e-02    1.0138277344e+05
    2.5668226182e-02    1.0137085156e+05
    2.5688380003e-02    1.0135592969e+05
    2.5708526373e-02    1.0134512500e+05
    2.5728661567e-02    1.0133458594e+05
    2.5748789310e-02    1.0132662500e+05
    2.5768904015e-02    1.0132446875e+05
    2.5789011270e-02    1.0133396094e+05
    2.5809109211e-02    1.0134624219e+05
    2.5829195976e-02    1.0136284375e+05
    2.5849273428e-02    1.0138046875e+05
    2.5869343430e-02    1.0139921875e+05
    2.5889402255e-02    1.0142353125e+05
    2.5909451768e-02    1.0145469531e+05
    2.5929493830e-02    1.0147767969e+05
    2.5949522853e-02    1.0150471875e+05
    2.5969544426e-02    1.0152731250e+05
    2.5989556685e-02    1.0155246875e+05
    2.6009559631e-02    1.0157349219e+05
    2.6029553264e-02    1.0158777344e+05
    2.6049537584e-02    1.0160103125e+05
    2.6069512591e-02    1.0160952344e+05
    2.6089478284e-02    1.0162092969e+05
    2.6109432802e-02    1.0162934375e+05
    2.6129379869e-02    1.0162857031e+05
    2.6149315760e-02    1.0162284375e+05
    2.6169244200e-02    1.0161825000e+05
    2.6189163327e-02    1.0161468750e+05
    2.6209073141e-02    1.0161362500e+05
    2.6228975505e-02    1.0161432031e+05
    2.6248866692e-02    1.0161285156e+05
    2.6268748567e-02    1.0160837500e+05
    2.6288621128e-02    1.0160559375e+05
    2.6308484375e-02    1.0160460156e+05
    2.6328338310e-02    1.0160814844e+05
    2.6348184794e-02    1.0161075000e+05
    2.6368021965e-02    1.0162314844e+05
    2.6387847960e-02    1.0163180469e+05
    2.6407664642e-02    1.0164314844e+05
    2.6427472010e-02    1.0165765625e+05
    2.6447271928e-02    1.0166825000e+05
    2.6467062533e-02    1.0167989844e+05
    2.6486843824e-02    1.0169300000e+05
    2.6506617665e-02    1.0170915625e+05
    2.6526380330e-02    1.0171737500e+05
    2.6546133682e-02    1.0172767969e+05
    2.6565877721e-02    1.0173069531e+05
    2.6585612446e-02    1.0173371875e+05
    2.6605339721e-02    1.0173964844e+05
    2.6625057682e-02    1.0174292969e+05
    2.6644766331e-02    1.0174399219e+05
    2.6664465666e-02    1.0174066406e+05
    2.6684155688e-02    1.0173413281e+05
    2.6703836396e-02    1.0172766406e+05
    2.6723509654e-02    1.0171911719e+05
    2.6743173599e-02    1.0171227344e+05
    2.6762828231e-02    1.0171091406e+05
    2.6782475412e-02    1.0171128906e+05
    2.6802113280e-02    1.0170130469e+05
    2.6821739972e-02    1.0170236719e+05
    2.6841359213e-02    1.0170066406e+05
    2.6860967278e-02    1.0169617969e+05
    2.6880569756e-02    1.0169143750e+05
    2.6900164783e-02    1.0168603125e+05
    2.6919748634e-02    1.0168402344e+05
    2.6939325035e-02    1.0167647656e+05
    2.6958892122e-02    1.0168058594e+05
    2.6978449896e-02    1.0168346094e+05
    2.6997998357e-02    1.0167505469e+05
    2.7017539367e-02    1.0167252344e+05
    2.7037071064e-02    1.0167110156e+05
    2.7056595311e-02    1.0168013281e+05
    2.7076110244e-02    1.0167903906e+05
    2.7095617726e-02    1.0167432031e+05
    2.7115115896e-02    1.0166991406e+05
    2.7134604752e-02    1.0167127344e+05
    2.7154086158e-02    1.0167975781e+05
    2.7173558250e-02    1.0168049219e+05
    2.7193021029e-02    1.0168032031e+05
    2.7212476358e-02    1.0168035156e+05
    2.7231922373e-02    1.0168396094e+05
    2.7251357213e-02    1.0168674219e+05
    2.7270786464e-02    1.0169081250e+05
    2.7290204540e-02    1.0169350000e+05
    2.7309613302e-02    1.0169271875e+05
    2.7329014614e-02    1.0169313281e+05
    2.7348404750e-02    1.0169497656e+05
    2.7367785573e-02    1.0169853906e+05
    2.7387158945e-02    1.0170447656e+05
    2.7406521142e-02    1.0170749219e+05
    2.7425874025e-02    1.0170717969e+05
    2.7445219457e-02    1.0171042969e+05
    2.7464553714e-02    1.0171615625e+05
    2.7483878657e-02    1.0171835156e+05
    2.7503194287e-02    1.0172382031e+05
    2.7522502467e-02    1.0172024219e+05
    2.7541799471e-02    1.0172203125e+05
    2.7561087161e-02    1.0171656250e+05
    2.7580365539e-02    1.0171908594e+05
    2.7599634603e-02    1.0172272656e+05
    2.7618894354e-02    1.0172619531e+05
    2.7638144791e-02    1.0172128906e+05
    2.7657385916e-02    1.0172103125e+05
    2.7676619589e-02    1.0172080469e+05
    2.7695843950e-02    1.0172424219e+05
    2.7715058997e-02    1.0172278906e+05
    2.7734262869e-02    1.0172125000e+05
    2.7753459290e-02    1.0172199219e+05
    2.7772648260e-02    1.0172625000e+05
    2.7791827917e-02    1.0172575781e+05
    2.7810998261e-02    1.0172642969e+05
    2.7830159292e-02    1.0172255469e+05
    2.7849311009e-02    1.0173144531e+05
    2.7868455276e-02    1.0172755469e+05
    2.7887590230e-02    1.0172471094e+05
    2.7906717733e-02    1.0173347656e+05
    2.7925835922e-02    1.0173419531e+05
    2.7944946662e-02    1.0173140625e+05
    2.7964048088e-02    1.0173190625e+05
    2.7983140200e-02    1.0173593750e+05
    2.8002224863e-02    1.0173668750e+05
    2.8021300212e-02    1.0173641406e+05
    2.8040368110e-02    1.0173737500e+05
    2.8059426695e-02    1.0174082031e+05
    2.8078475967e-02    1.0174210156e+05
    2.8097519651e-02    1.0174358594e+05
    2.8116554022e-02    1.0175442969e+05
    2.8135580942e-02    1.0175614844e+05
    2.8154598549e-02    1.0175284375e+05
    2.8173606843e-02    1.0175303906e+05
    2.8192607686e-02    1.0175322656e+05
    2.8211599216e-02    1.0175469531e+05
    2.8230583295e-02    1.0176685156e+05
    2.8249559924e-02    1.0176907031e+05
    2.8268527240e-02    1.0177239844e+05
    2.8287487105e-02    1.0177446875e+05
    2.8306435794e-02    1.0177272656e+05
    2.8325378895e-02    1.0177328906e+05
    2.8344312683e-02    1.0177157031e+05
    2.8363237157e-02    1.0177672656e+05
    2.8382156044e-02    1.0178352344e+05
    2.8401065618e-02    1.0178799219e+05
    2.8419965878e-02    1.0178790625e+05
    2.8438858688e-02    1.0178784375e+05
    2.8457742184e-02    1.0179710156e+05
    2.8476616368e-02    1.0179825781e+05
    2.8495483100e-02    1.0180042969e+05
    2.8514338657e-02    1.0179781250e+05
    2.8533160686e-02    1.0179875000e+05
    2.8551930562e-02    1.0180562500e+05
    2.8570635244e-02    1.0180783594e+05
    2.8589271009e-02    1.0180321094e+05
    2.8607837856e-02    1.0180671094e+05
    2.8626350686e-02    1.0181846094e+05
    2.8644818813e-02    1.0181989844e+05
    2.8663259000e-02    1.0181660156e+05
    2.8681686148e-02    1.0181677344e+05
    2.8700113297e-02    1.0181905469e+05
    2.8718546033e-02    1.0182461719e+05
    2.8736986220e-02    1.0182247656e+05
    2.8755431995e-02    1.0182219531e+05
    2.8773877770e-02    1.0182385156e+05
    2.8792314231e-02    1.0182737500e+05
    2.8810730204e-02    1.0182374219e+05
    2.8829116374e-02    1.0182037500e+05
    2.8847465292e-02    1.0182275781e+05
    2.8865773231e-02    1.0182981250e+05
    2.8884036466e-02    1.0183143750e+05
    2.8902258724e-02    1.0183289844e+05
    2.8920443729e-02    1.0182488281e+05
    2.8938598931e-02    1.0182821094e+05
    2.8956729919e-02    1.0182716406e+05
    2.8974846005e-02    1.0183296875e+05
    2.8992949054e-02    1.0183036719e+05
    2.9011042789e-02    1.0182903125e+05
    2.9029129073e-02    1.0182877344e+05
    2.9047204182e-02    1.0183569531e+05
    2.9065268114e-02    1.0184016406e+05
    2.9083315283e-02    1.0183428906e+05
    2.9101338238e-02    1.0183511719e+05
    2.9119335115e-02    1.0183344531e+05
    2.9137304053e-02    1.0183388281e+05
    2.9155241325e-02    1.0183428906e+05
    2.9173148796e-02    1.0183582031e+05
    2.9191024601e-02    1.0183534375e+05
    2.9208874330e-02    1.0183728906e+05
    2.9226697981e-02    1.0183814844e+05
    2.9244501144e-02    1.0184377344e+05
    2.9262285680e-02    1.0184355469e+05
    2.9280053452e-02    1.0184549219e+05
    2.9297806323e-02    1.0184511719e+05
    2.9315544292e-02    1.0184716406e+05
    2.9333265498e-02    1.0184252344e+05
    2.9350971803e-02    1.0184819531e+05
    2.9368655756e-02    1.0184541406e+05
    2.9386319220e-02    1.0184507031e+05
    2.9403960332e-02    1.0184703125e+05
    2.9421577230e-02    1.0184912500e+05
    2.9439168051e-02    1.0184912500e+05
    2.9456734657e-02    1.0185156250e+05
    2.9474277049e-02    1.0185396094e+05
    2.9491795227e-02    1.0185377344e+05
    2.9509292915e-02    1.0185921094e+05
    2.9526771978e-02    1.0185339844e+05
    2.9544232413e-02    1.0185428906e+05
    2.9561674222e-02    1.0185517969e+05
    2.9579099268e-02    1.0185594531e+05
    2.9596509412e-02    1.0185652344e+05
    2.9613900930e-02    1.0185814844e+05
    2.9631273821e-02    1.0185963281e+05
    2.9648626223e-02    1.0185759375e+05
    2.9665958136e-02    1.0185778125e+05
    2.9683271423e-02    1.0185911719e+05
    2.9700560495e-02    1.0185685156e+05
    2.9717829078e-02    1.0184888281e+05
    2.9735075310e-02    1.0185357031e+05
    2.9752301052e-02    1.0185708594e+05
    2.9769508168e-02    1.0185960156e+05
    2.9786696658e-02    1.0185535156e+05
    2.9803866521e-02    1.0185432031e+05
    2.9821017757e-02    1.0185882031e+05
    2.9838152230e-02    1.0186121094e+05
    2.9855269939e-02    1.0186128906e+05
    2.9872370884e-02    1.0185900781e+05
    2.9889453202e-02    1.0185350781e+05
    2.9906518757e-02    1.0186072656e+05
    2.9923565686e-02    1.0186103906e+05
    2.9940593988e-02    1.0186380469e+05
    2.9957601801e-02    1.0185977344e+05
    2.9974590987e-02    1.0185552344e+05
    2.9991561547e-02    1.0186408594e+05
    3.0008511618e-02    1.0186474219e+05
    3.0025444925e-02    1.0186655469e+05
    3.0042361468e-02    1.0186830469e+05
    3.0059259385e-02    1.0186446875e+05
    3.0076142401e-02    1.0187164844e+05
    3.0093006790e-02    1.0187214844e+05
    3.0109854415e-02    1.0187186719e+05
    3.0126683414e-02    1.0187167969e+05
    3.0143497512e-02    1.0187288281e+05
    3.0160292983e-02    1.0187428906e+05
    3.0177071691e-02    1.0187816406e+05
    3.0193833634e-02    1.0188230469e+05
    3.0210576952e-02    1.0188664844e+05
    3.0227303505e-02    1.0188628906e+05
    3.0244011432e-02    1.0188566406e+05
    3.0260702595e-02    1.0188602344e+05
    3.0277376994e-02    1.0188617969e+05
    3.0294034630e-02    1.0188758594e+05
    3.0310675502e-02    1.0188996094e+05
    3.0327299610e-02    1.0188991406e+05
    3.0343905091e-02    1.0189078125e+05
    3.0360495672e-02    1.0188918750e+05
    3.0377071351e-02    1.0188033594e+05
    3.0393628404e-02    1.0188185156e+05
    3.0410168692e-02    1.0188802344e+05
    3.0426690355e-02    1.0188869531e+05
    3.0443195254e-02    1.0189022656e+05
    3.0459685251e-02    1.0187996875e+05
    3.0476156622e-02    1.0187988281e+05
    3.0492611229e-02    1.0187733594e+05
    3.0509050936e-02    1.0187930469e+05
    3.0525473878e-02    1.0187678906e+05
    3.0541881919e-02    1.0187783594e+05
    3.0558273196e-02    1.0188138281e+05
    3.0574647710e-02    1.0188827344e+05
    3.0591005459e-02    1.0188837500e+05
    3.0607348308e-02    1.0187936719e+05
    3.0623674393e-02    1.0188517969e+05
    3.0639985576e-02    1.0188921094e+05
    3.0656279996e-02    1.0189228906e+05
    3.0672557652e-02    1.0189781250e+05
    3.0688818544e-02    1.0189927344e+05
    3.0705062672e-02    1.0190808594e+05
    3.0721291900e-02    1.0191015625e+05
    3.0737506226e-02    1.0191581250e+05
    3.0753703788e-02    1.0191843750e+05
    3.0769886449e-02    1.0192834375e+05
    3.0786054209e-02    1.0193160156e+05
    3.0802207068e-02    1.0193631250e+05
    3.0818343163e-02    1.0194253906e+05
    3.0834466219e-02    1.0195366406e+05
    3.0850572512e-02    1.0196291406e+05
    3.0866663903e-02    1.0196536719e+05
    3.0882738531e-02    1.0197122656e+05
    3.0898798257e-02    1.0197712500e+05
    3.0914843082e-02    1.0197958594e+05
    3.0930871144e-02    1.0198546094e+05
    3.0946886167e-02    1.0199010156e+05
    3.0962884426e-02    1.0199577344e+05
    3.0978867784e-02    1.0199560156e+05
    3.0994836241e-02    1.0199493750e+05
    3.1010789797e-02    1.0199653125e+05
    3.1026728451e-02    1.0200144531e+05
    3.1042650342e-02    1.0200514844e+05
    3.1058559194e-02    1.0200758594e+05
    3.1074455008e-02    1.0201103906e+05
    3.1090334058e-02    1.0200878125e+05
    3.1106200069e-02    1.0201174219e+05
    3.1122051179e-02    1.0200839844e+05
    3.1137887388e-02    1.0200700000e+05
    3.1153710559e-02    1.0200252344e+05
    3.1169516966e-02    1.0199889844e+05
    3.1185310334e-02    1.0199341406e+05
    3.1201090664e-02    1.0199228906e+05
    3.1216854230e-02    1.0199203906e+05
    3.1232602894e-02    1.0198475000e+05
    3.1248336658e-02    1.0198036719e+05
    3.1264055520e-02    1.0197810156e+05
    3.1279761344e-02    1.0197675781e+05
    3.1295452267e-02    1.0196703906e+05
    3.1311132014e-02    1.0196378906e+05
    3.1326796860e-02    1.0196128125e+05
    3.1342446804e-02    1.0195027344e+05
    3.1358085573e-02    1.0194571875e+05
    3.1373709440e-02    1.0193497656e+05
    3.1389318407e-02    1.0192635156e+05
    3.1404916197e-02    1.0192414844e+05
    3.1420499086e-02    1.0191028906e+05
    3.1436067075e-02    1.0190530469e+05
    3.1451620162e-02    1.0190019531e+05
    3.1467158347e-02    1.0189505469e+05
    3.1482685357e-02    1.0189010156e+05
    3.1498193741e-02    1.0188985156e+05
    3.1513694674e-02    1.0188918750e+05
    3.1529176980e-02    1.0188867969e+05
    3.1544648111e-02    1.0188996094e+05
    3.1560108066e-02    1.0188702344e+05
    3.1575553119e-02    1.0189000000e+05
    3.1590986997e-02    1.0189364844e+05
    3.1606405973e-02    1.0189174219e+05
    3.1621813774e-02    1.0189467969e+05
    3.1637206674e-02    1.0189832031e+05
    3.1652588397e-02    1.0190255469e+05
    3.1667951494e-02    1.0190494531e+05
    3.1683307141e-02    1.0191725781e+05
    3.1698647887e-02    1.0192578906e+05
    3.1713977456e-02    1.0193255469e+05
    3.1729292125e-02    1.0194458594e+05
    3.1744595617e-02    1.0194780469e+05
    3.1759884208e-02    1.0195135156e+05
    3.1775161624e-02    1.0196436719e+05
    3.1790427864e-02    1.0196859375e+05
    3.1805675477e-02    1.0197546094e+05
    3.1820915639e-02    1.0198756250e+05
    3.1836140901e-02    1.0199316406e+05
    3.1851354986e-02    1.0201066406e+05
    3.1866557896e-02    1.0201708594e+05
    3.1881745905e-02    1.0202253125e+05
    3.1896922737e-02    1.0203038281e+05
    3.1912088394e-02    1.0203728906e+05
    3.1927239150e-02    1.0204896094e+05
    3.1942378730e-02    1.0205816406e+05
    3.1957507133e-02    1.0206267969e+05
    3.1972620636e-02    1.0206503906e+05
    3.1987726688e-02    1.0206946094e+05
    3.2002814114e-02    1.0207830469e+05
    3.2017890364e-02    1.0208471875e+05
    3.2032959163e-02    1.0208865625e+05
    3.2048013061e-02    1.0209686719e+05
    3.2063052058e-02    1.0209328906e+05
    3.2078083605e-02    1.0209847656e+05
    3.2093103975e-02    1.0209859375e+05
    3.2108109444e-02    1.0209856250e+05
    3.2123107463e-02    1.0210253125e+05
    3.2138090581e-02    1.0209583594e+05
    3.2153062522e-02    1.0209800781e+05
    3.2168023288e-02    1.0210118750e+05
    3.2182972878e-02    1.0210641406e+05
    3.2197911292e-02    1.0210446094e+05
    3.2212834805e-02    1.0209992969e+05
    3.2227750868e-02    1.0210191406e+05
    3.2242652029e-02    1.0210356250e+05
    3.2257542014e-02    1.0209585156e+05
    3.2272424549e-02    1.0209694531e+05
    3.2287292182e-02    1.0209900000e+05
    3.2302148640e-02    1.0210090625e+05
    3.2316997647e-02    1.0209559375e+05
    3.2331831753e-02    1.0209033594e+05
    3.2346658409e-02    1.0209053906e+05
    3.2361470163e-02    1.0209071094e+05
    3.2376270741e-02    1.0209197656e+05
    3.2391063869e-02    1.0209092969e+05
    3.2405842096e-02    1.0209096094e+05
    3.2420612872e-02    1.0209077344e+05
    3.2435368747e-02    1.0208228906e+05
    3.2450113446e-02    1.0208271875e+05
    3.2464850694e-02    1.0208175000e+05
    3.2479573041e-02    1.0208052344e+05
    3.2494287938e-02    1.0207677344e+05
    3.2508991659e-02    1.0206841406e+05
    3.2523684204e-02    1.0206566406e+05
    3.2538365573e-02    1.0206761719e+05
    3.2553035766e-02    1.0207088281e+05
    3.2567698509e-02    1.0206969531e+05
    3.2582346350e-02    1.0206617969e+05
    3.2596986741e-02    1.0206267969e+05
    3.2611619681e-02    1.0205916406e+05
    3.2626237720e-02    1.0205772656e+05
    3.2640848309e-02    1.0205746094e+05
    3.2655447721e-02    1.0205708594e+05
    3.2670035958e-02    1.0205546094e+05
    3.2684613019e-02    1.0205265625e+05
    3.2699178904e-02    1.0204971875e+05
    3.2713737339e-02    1.0204791406e+05
    3.2728284597e-02    1.0204619531e+05
    3.2742820680e-02    1.0204571094e+05
    3.2757349312e-02    1.0204425000e+05
    3.2771866769e-02    1.0204180469e+05
    3.2786373049e-02    1.0204292969e+05
    3.2800871879e-02    1.0204191406e+05
    3.2815355808e-02    1.0204207031e+05
    3.2829832286e-02    1.0204461719e+05
    3.2844301313e-02    1.0204115625e+05
    3.2858755440e-02    1.0203747656e+05
    3.2873202115e-02    1.0203606250e+05
    3.2887637615e-02    1.0203572656e+05
    3.2902065665e-02    1.0203315625e+05
    3.2916482538e-02    1.0203416406e+05
    3.2930891961e-02    1.0203536719e+05
    3.2945290208e-02    1.0203331250e+05
    3.2959677279e-02    1.0203134375e+05
    3.2974056900e-02    1.0202697656e+05
    3.2988425344e-02    1.0203175781e+05
    3.3002786338e-02    1.0203089844e+05
    3.3017136157e-02    1.0202999219e+05
    3.3031478524e-02    1.0202900781e+05
    3.3045809716e-02    1.0201982031e+05
    3.3060129732e-02    1.0202315625e+05
    3.3074442297e-02    1.0202071875e+05
    3.3088747412e-02    1.0202056250e+05
    3.3103041351e-02    1.0201813281e+05
    3.3117324114e-02    1.0201694531e+05
    3.3131599426e-02    1.0201688281e+05
    3.3145863563e-02    1.0201921094e+05
    3.3160120249e-02    1.0201822656e+05
    3.3174365759e-02    1.0201728906e+05
    3.3188603818e-02    1.0201639844e+05
    3.3202830702e-02    1.0201552344e+05
    3.3217050135e-02    1.0201363281e+05
    3.3231258392e-02    1.0201178906e+05
    3.3245459199e-02    1.0201128906e+05
    3.3259648830e-02    1.0201103906e+05
    3.3273831010e-02    1.0202003906e+05
    3.3288005739e-02    1.0201988281e+05
    3.3302169293e-02    1.0201846875e+05
    3.3316325396e-02    1.0200986719e+05
    3.3330474049e-02    1.0200921094e+05
    3.3344611526e-02    1.0200850781e+05
    3.3358741552e-02    1.0201008594e+05
    3.3372864127e-02    1.0200721094e+05
    3.3386975527e-02    1.0200900781e+05
    3.3401079476e-02    1.0201653906e+05
    3.3415172249e-02    1.0201267969e+05
    3.3429257572e-02    1.0200984375e+05
    3.3443335444e-02    1.0200483594e+05
    3.3457405865e-02    1.0200414844e+05
    3.3471468836e-02    1.0200344531e+05
    3.3485524356e-02    1.0200277344e+05
    3.3499568701e-02    1.0200224219e+05
    3.3513605595e-02    1.0200743750e+05
    3.3527631313e-02    1.0200825781e+05
    3.3541653305e-02    1.0200802344e+05
    3.3555664122e-02    1.0201259375e+05
    3.3569667488e-02    1.0200808594e+05
    3.3583663404e-02    1.0201028906e+05
    3.3597648144e-02    1.0200893750e+05
    3.3611625433e-02    1.0201010156e+05
    3.3625595272e-02    1.0201011719e+05
    3.3639557660e-02    1.0201249219e+05
    3.3653512597e-02    1.0201246094e+05
    3.3667460084e-02    1.0200566406e+05
    3.3681396395e-02    1.0201484375e+05
    3.3695328981e-02    1.0201493750e+05
    3.3709254116e-02    1.0201510156e+05
    3.3723168075e-02    1.0201517969e+05
    3.3737078309e-02    1.0200825000e+05
    3.3750977367e-02    1.0200936719e+05
    3.3764872700e-02    1.0201050000e+05
    3.3778760582e-02    1.0201533594e+05
    3.3792637289e-02    1.0201431250e+05
    3.3806510270e-02    1.0201321875e+05
    3.3820372075e-02    1.0201096875e+05
    3.3834230155e-02    1.0200660156e+05
    3.3848077059e-02    1.0200672656e+05
    3.3861916512e-02    1.0200803125e+05
    3.3875752240e-02    1.0201859375e+05
    3.3889576793e-02    1.0201894531e+05
    3.3903393894e-02    1.0201808594e+05
    3.3917203546e-02    1.0201011719e+05
    3.3931009471e-02    1.0200785156e+05
    3.3944804221e-02    1.0200778906e+05
    3.3958595246e-02    1.0201007031e+05
    3.3972378820e-02    1.0201008594e+05
    3.3986151218e-02    1.0200778906e+05
    3.3999919891e-02    1.0200903906e+05
    3.4013681114e-02    1.0201032031e+05
    3.4027434886e-02    1.0201741406e+05
    3.4041177481e-02    1.0201072656e+05
    3.4054916352e-02    1.0200978125e+05
    3.4068647772e-02    1.0200859375e+05
    3.4082375467e-02    1.0200827344e+05
    3.4096091986e-02    1.0200762500e+05
    3.4109804779e-02    1.0199734375e+05
    3.4123510122e-02    1.0199471875e+05
    3.4137208015e-02    1.0199419531e+05
    3.4150898457e-02    1.0199240625e+05
    3.4164581448e-02    1.0198834375e+05
    3.4178260714e-02    1.0198900000e+05
    3.4191932529e-02    1.0198531250e+05
    3.4205596894e-02    1.0198635156e+05
    3.4219253808e-02    1.0198534375e+05
    3.4232903272e-02    1.0198680469e+05
    3.4246545285e-02    1.0198346875e+05
    3.4260183573e-02    1.0198021094e+05
    3.4273810685e-02    1.0198150000e+05
    3.4287434071e-02    1.0197946875e+05
    3.4301050007e-02    1.0197977344e+05
    3.4314658493e-02    1.0198121094e+05
    3.4328263253e-02    1.0197810156e+05
    3.4341860563e-02    1.0197952344e+05
    3.4355450422e-02    1.0197635156e+05
    3.4369036555e-02    1.0197540625e+05
    3.4382611513e-02    1.0197446875e+05
    3.4396182746e-02    1.0197116406e+05
    3.4409742802e-02    1.0197218750e+05
    3.4423299134e-02    1.0196850781e+05
    3.4436848015e-02    1.0196928906e+05
    3.4450393170e-02    1.0196289844e+05
    3.4463927150e-02    1.0195855469e+05
    3.4477461129e-02    1.0195410156e+05
    3.4490987659e-02    1.0195178906e+05
    3.4504506737e-02    1.0194958594e+05
    3.4518022090e-02    1.0194750781e+05
    3.4531529993e-02    1.0195033594e+05
    3.4545030445e-02    1.0195338281e+05
    3.4558523446e-02    1.0195442969e+05
    3.4572008997e-02    1.0195102344e+05
    3.4585487098e-02    1.0195002344e+05
    3.4598957747e-02    1.0195135156e+05
    3.4612424672e-02    1.0194812500e+05
    3.4625884145e-02    1.0194828906e+05
    3.4639336169e-02    1.0194716406e+05
    3.4652780741e-02    1.0194477344e+05
    3.4666225314e-02    1.0194322656e+05
    3.4679658711e-02    1.0193255469e+05
    3.4693088382e-02    1.0193314844e+05
    3.4706510603e-02    1.0193275000e+05
    3.4719929099e-02    1.0193462500e+05
    3.4733340144e-02    1.0193533594e+05
    3.4746743739e-02    1.0193256250e+05
    3.4760143608e-02    1.0192752344e+05
    3.4773536026e-02    1.0193065625e+05
    3.4786924720e-02    1.0192693750e+05
    3.4800305963e-02    1.0192313281e+05
    3.4813679755e-02    1.0192496094e+05
    3.4827046096e-02    1.0192346094e+05
    3.4840408713e-02    1.0192081250e+05
    3.4853763878e-02    1.0192139844e+05
    3.4867111593e-02    1.0191760156e+05
    3.4880455583e-02    1.0191836719e+05
    3.4893795848e-02    1.0191466406e+05
    3.4907124937e-02    1.0191766406e+05
    3.4920454025e-02    1.0190946094e+05
    3.4933775663e-02    1.0191471094e+05
    3.4947093576e-02    1.0191097656e+05
    3.4960404038e-02    1.0190718750e+05
    3.4973710775e-02    1.0189892969e+05
    3.4987010062e-02    1.0190669531e+05
endcurve
