Curveplot
LS-DYNA keyword deck by LS-PrePost                          
Time
Pressure
Defined Connection
Pressure @ 96 #pts=1745
* Minval=     9.9694593750e+04 at time=         0.0169933662
* Maxval=     1.6330375000e+05 at time=         0.0082926024
    0.0000000000e+00    9.9995273438e+04
    3.3812357287e-05    9.9995273438e+04
    6.1326652940e-05    1.0000012500e+05
    8.9102875791e-05    9.9995812500e+04
    1.1682785407e-04    9.9998343750e+04
    1.4461828687e-04    1.0000116406e+05
    1.7236733402e-04    1.0000749219e+05
    2.0016246708e-04    9.9997960938e+04
    2.2795486439e-04    1.0000283594e+05
    2.5574557367e-04    9.9998523438e+04
    2.8353667585e-04    9.9998523438e+04
    3.1133697485e-04    1.0000302344e+05
    3.3912662184e-04    1.0000060156e+05
    3.6691734567e-04    9.9995960938e+04
    3.9470891352e-04    9.9998187500e+04
    4.2249175021e-04    1.0000052344e+05
    4.5027161832e-04    1.0000083594e+05
    4.7804549104e-04    1.0000116406e+05
    5.0581363030e-04    9.9999125000e+04
    5.3357944125e-04    9.9999351562e+04
    5.6134146871e-04    1.0000416406e+05
    5.8909942163e-04    1.0000208594e+05
    6.1685312539e-04    9.9999726562e+04
    6.4460188150e-04    9.9999468750e+04
    6.7234638846e-04    1.0000282031e+05
    7.0008635521e-04    9.9999187500e+04
    7.2782178177e-04    9.9998867188e+04
    7.5555208605e-04    9.9999968750e+04
    7.8327720985e-04    1.0000100781e+05
    8.1099680392e-04    9.9999351562e+04
    8.3871174138e-04    9.9997867188e+04
    8.6642213864e-04    1.0000021094e+05
    8.9412782108e-04    9.9998648438e+04
    9.2182843946e-04    1.0000172656e+05
    9.4952445943e-04    1.0000328125e+05
    9.7721535712e-04    9.9997531250e+04
    1.0049008997e-03    9.9999679688e+04
    1.0325826006e-03    1.0000194531e+05
    1.0602590628e-03    1.0000238281e+05
    1.0879321489e-03    1.0000488281e+05
    1.1155996472e-03    1.0000228125e+05
    1.1432634201e-03    9.9997414062e+04
    1.1709230021e-03    9.9992445312e+04
    1.1985785095e-03    9.9994570312e+04
    1.2262313394e-03    1.0000203906e+05
    1.2538790470e-03    1.0001433594e+05
    1.2815232622e-03    1.0000208594e+05
    1.3091630535e-03    9.9994335938e+04
    1.3368004002e-03    9.9995687500e+04
    1.3644339051e-03    1.0000933594e+05
    1.3920635683e-03    1.0002805469e+05
    1.4196902048e-03    1.0005539844e+05
    1.4473132323e-03    1.0010761719e+05
    1.4749332331e-03    1.0019741406e+05
    1.5025498578e-03    1.0032514844e+05
    1.5301633393e-03    1.0052066406e+05
    1.5577742597e-03    1.0077434375e+05
    1.5853822697e-03    1.0108771875e+05
    1.6129877185e-03    1.0146403125e+05
    1.6405890929e-03    1.0186424219e+05
    1.6681876732e-03    1.0224935156e+05
    1.6957829939e-03    1.0260121094e+05
    1.7233766848e-03    1.0287446094e+05
    1.7509678146e-03    1.0305761719e+05
    1.7785291420e-03    1.0313809375e+05
    1.8060547300e-03    1.0313483594e+05
    1.8335470231e-03    1.0305257031e+05
    1.8610082334e-03    1.0291124219e+05
    1.8884401070e-03    1.0275271094e+05
    1.9158447394e-03    1.0258109375e+05
    1.9432241097e-03    1.0241543750e+05
    1.9705800805e-03    1.0229182031e+05
    1.9979148638e-03    1.0221896875e+05
    2.0252298564e-03    1.0219281250e+05
    2.0525271539e-03    1.0221575781e+05
    2.0798076876e-03    1.0227375000e+05
    2.1070730872e-03    1.0234506250e+05
    2.1343247499e-03    1.0242152344e+05
    2.1615643054e-03    1.0248108594e+05
    2.1887931507e-03    1.0252368750e+05
    2.2160108201e-03    1.0254219531e+05
    2.2432196420e-03    1.0253956250e+05
    2.2704207804e-03    1.0250849219e+05
    2.2976147011e-03    1.0247741406e+05
    2.3248014040e-03    1.0244713281e+05
    2.3519827519e-03    1.0242108594e+05
    2.3791582789e-03    1.0239721094e+05
    2.4063293822e-03    1.0238453906e+05
    2.4334960617e-03    1.0238307031e+05
    2.4606597144e-03    1.0239564844e+05
    2.4878205732e-03    1.0240805469e+05
    2.5149781723e-03    1.0243078906e+05
    2.5421329774e-03    1.0244124219e+05
    2.5692859199e-03    1.0245000000e+05
    2.5964374654e-03    1.0244696094e+05
    2.6235871483e-03    1.0244103906e+05
    2.6507352013e-03    1.0243589844e+05
    2.6778825559e-03    1.0243253906e+05
    2.7050296776e-03    1.0242358594e+05
    2.7321761008e-03    1.0241531250e+05
    2.7593218256e-03    1.0241034375e+05
    2.7864677832e-03    1.0242039844e+05
    2.8136142064e-03    1.0242469531e+05
    2.8407603968e-03    1.0243678125e+05
    2.8679079842e-03    1.0244719531e+05
    2.8950548731e-03    1.0246078906e+05
    2.9222022276e-03    1.0248747656e+05
    2.9493502807e-03    1.0251450781e+05
    2.9764990322e-03    1.0257077344e+05
    3.0036487151e-03    1.0263678125e+05
    3.0307997949e-03    1.0272343750e+05
    3.0579508748e-03    1.0282117969e+05
    3.0851035845e-03    1.0292397656e+05
    3.1122572254e-03    1.0302506250e+05
    3.1394117977e-03    1.0311502344e+05
    3.1665677670e-03    1.0319603125e+05
    3.1937246677e-03    1.0325946094e+05
    3.2208829653e-03    1.0330291406e+05
    3.2480424270e-03    1.0331197656e+05
    3.2752046827e-03    1.0329727344e+05
    3.2952371985e-03    1.0325538281e+05
    3.3145032357e-03    1.0322091406e+05
    3.3336398192e-03    1.0317985156e+05
    3.3528339118e-03    1.0314181250e+05
    3.3720366191e-03    1.0310041406e+05
    3.3912549261e-03    1.0306074219e+05
    3.4104890656e-03    1.0301365625e+05
    3.4297339153e-03    1.0296925781e+05
    3.4486323129e-03    1.0293465625e+05
    3.4671388566e-03    1.0288466406e+05
    3.4854323603e-03    1.0283078906e+05
    3.5036695190e-03    1.0277275000e+05
    3.5219141282e-03    1.0270578125e+05
    3.5401545465e-03    1.0263677344e+05
    3.5583588760e-03    1.0256383594e+05
    3.5765271168e-03    1.0249233594e+05
    3.5946895368e-03    1.0242913281e+05
    3.6139658187e-03    1.0237185156e+05
    3.6330535077e-03    1.0232466406e+05
    3.6521453876e-03    1.0228992969e+05
    3.6699753255e-03    1.0225446094e+05
    3.6875614896e-03    1.0223178125e+05
    3.7050142419e-03    1.0221025000e+05
    3.7224807311e-03    1.0219215625e+05
    3.7400643341e-03    1.0217968750e+05
    3.7577797193e-03    1.0217159375e+05
    3.7755726371e-03    1.0215624219e+05
    3.7933769636e-03    1.0214497656e+05
    3.8111612666e-03    1.0213988281e+05
    3.8289318327e-03    1.0213175781e+05
    3.8467168342e-03    1.0212499219e+05
    3.8645383902e-03    1.0211506250e+05
    3.8824023213e-03    1.0210737500e+05
    3.9002960548e-03    1.0210046094e+05
    3.9182156324e-03    1.0209193750e+05
    3.9361710660e-03    1.0207680469e+05
    3.9541716687e-03    1.0205803906e+05
    3.9733103476e-03    1.0204109375e+05
    3.9924201556e-03    1.0201432031e+05
    4.0104058571e-03    1.0199658594e+05
    4.0284004062e-03    1.0197940625e+05
    4.0464363992e-03    1.0197221094e+05
    4.0656095371e-03    1.0196856250e+05
    4.0847789496e-03    1.0196399219e+05
    4.1039343923e-03    1.0196516406e+05
    4.1219722480e-03    1.0196042969e+05
    4.1400394402e-03    1.0195633594e+05
    4.1591953486e-03    1.0194438281e+05
    4.1784178466e-03    1.0193241406e+05
    4.1976389475e-03    1.0192150000e+05
    4.2168586515e-03    1.0191513281e+05
    4.2360713705e-03    1.0190413281e+05
    4.2552771047e-03    1.0189777344e+05
    4.2744791135e-03    1.0188666406e+05
    4.2936825193e-03    1.0187534375e+05
    4.3128933758e-03    1.0186817969e+05
    4.3321144767e-03    1.0185572656e+05
    4.3513495475e-03    1.0184082031e+05
    4.3705995195e-03    1.0182421094e+05
    4.3898657896e-03    1.0180191406e+05
    4.4091497548e-03    1.0177685156e+05
    4.4284537435e-03    1.0175060156e+05
    4.4477786869e-03    1.0171806250e+05
    4.4671236537e-03    1.0167850781e+05
    4.4864914380e-03    1.0162985156e+05
    4.5058806427e-03    1.0156537500e+05
    4.5252908021e-03    1.0148777344e+05
    4.5447219163e-03    1.0140902344e+05
    4.5641721226e-03    1.0131306250e+05
    4.5836409554e-03    1.0120705469e+05
    4.6031279489e-03    1.0110090625e+05
    4.6226321720e-03    1.0098441406e+05
    4.6421540901e-03    1.0086589844e+05
    4.6616927721e-03    1.0073922656e+05
    4.6812482178e-03    1.0061656250e+05
    4.7008208930e-03    1.0050349219e+05
    4.7204112634e-03    1.0039253906e+05
    4.7400193289e-03    1.0029861719e+05
    4.7596455552e-03    1.0022978906e+05
    4.7792894766e-03    1.0018028125e+05
    4.7989510931e-03    1.0015596094e+05
    4.8186304048e-03    1.0014511719e+05
    4.8383255489e-03    1.0015999219e+05
    4.8580355942e-03    1.0019628125e+05
    4.8777610064e-03    1.0023433594e+05
    4.8975008540e-03    1.0028489844e+05
    4.9172551371e-03    1.0034381250e+05
    4.9370229244e-03    1.0040688281e+05
    4.9568060786e-03    1.0047458594e+05
    4.9766036682e-03    1.0052989844e+05
    4.9964170903e-03    1.0058228906e+05
    5.0162458792e-03    1.0061187500e+05
    5.0360900350e-03    1.0064221094e+05
    5.0559476949e-03    1.0066571875e+05
    5.0758207217e-03    1.0067303906e+05
    5.0957072526e-03    1.0067366406e+05
    5.1156077534e-03    1.0067828906e+05
    5.1355226897e-03    1.0067516406e+05
    5.1554525271e-03    1.0065889844e+05
    5.1753963344e-03    1.0063840625e+05
    5.1953555085e-03    1.0061678906e+05
    5.2153295837e-03    1.0059703906e+05
    5.2353194915e-03    1.0058264844e+05
    5.2553247660e-03    1.0056969531e+05
    5.2753463387e-03    1.0057260156e+05
    5.2953832783e-03    1.0057094531e+05
    5.3154369816e-03    1.0057591406e+05
    5.3355065174e-03    1.0058499219e+05
    5.3555918857e-03    1.0059103906e+05
    5.3756926209e-03    1.0059608594e+05
    5.3958082572e-03    1.0060431250e+05
    5.4159392603e-03    1.0062246094e+05
    5.4360851645e-03    1.0063872656e+05
    5.4562464356e-03    1.0065152344e+05
    5.4764230736e-03    1.0065903125e+05
    5.4966160096e-03    1.0066450000e+05
    5.5168238468e-03    1.0066771094e+05
    5.5370470509e-03    1.0067107031e+05
    5.5572865531e-03    1.0067602344e+05
    5.5775423534e-03    1.0067700000e+05
    5.5978130549e-03    1.0066977344e+05
    5.6181000546e-03    1.0066902344e+05
    5.6384028867e-03    1.0067038281e+05
    5.6587206200e-03    1.0067188281e+05
    5.6790532544e-03    1.0067608594e+05
    5.6994007900e-03    1.0067972656e+05
    5.7197632268e-03    1.0067935156e+05
    5.7401410304e-03    1.0068368750e+05
    5.7605337352e-03    1.0068849219e+05
    5.7809422724e-03    1.0069233594e+05
    5.8013652451e-03    1.0069607031e+05
    5.8218040504e-03    1.0069994531e+05
    5.8422577567e-03    1.0070853906e+05
    5.8627268299e-03    1.0071717969e+05
    5.8832112700e-03    1.0071669531e+05
    5.9037101455e-03    1.0071837500e+05
    5.9242248535e-03    1.0071777344e+05
    5.9447535314e-03    1.0073096875e+05
    5.9641525149e-03    1.0073883594e+05
    5.9830932878e-03    1.0074210156e+05
    6.0020405799e-03    1.0074659375e+05
    6.0210367665e-03    1.0075688281e+05
    6.0400799848e-03    1.0076277344e+05
    6.0591096990e-03    1.0076759375e+05
    6.0781282373e-03    1.0077236719e+05
    6.0972142965e-03    1.0077025000e+05
    6.1162756756e-03    1.0078411719e+05
    6.1353649944e-03    1.0078910156e+05
    6.1544459313e-03    1.0079193750e+05
    6.1734300107e-03    1.0080657031e+05
    6.1924448237e-03    1.0081472656e+05
    6.2115197070e-03    1.0082997656e+05
    6.2306127511e-03    1.0083640625e+05
    6.2497169711e-03    1.0084296094e+05
    6.2688281760e-03    1.0085885156e+05
    6.2879407778e-03    1.0086591406e+05
    6.3070552424e-03    1.0087913281e+05
    6.3261794858e-03    1.0088839844e+05
    6.3453060575e-03    1.0090739844e+05
    6.3644465990e-03    1.0091815625e+05
    6.3835908659e-03    1.0093792969e+05
    6.4027444459e-03    1.0096571875e+05
    6.4219115302e-03    1.0098999219e+05
    6.4410855994e-03    1.0100588281e+05
    6.4602680504e-03    1.0102309375e+05
    6.4794607460e-03    1.0103091406e+05
    6.4986641519e-03    1.0104296094e+05
    6.5178787336e-03    1.0105694531e+05
    6.5371058881e-03    1.0106000000e+05
    6.5563363023e-03    1.0106917969e+05
    6.5755699761e-03    1.0107302344e+05
    6.5948092379e-03    1.0107134375e+05
    6.6140629351e-03    1.0107303906e+05
    6.6333152354e-03    1.0107115625e+05
    6.6525745206e-03    1.0106115625e+05
    6.6718445159e-03    1.0106153906e+05
    6.6911154427e-03    1.0105922656e+05
    6.7104012705e-03    1.0106346094e+05
    6.7296870984e-03    1.0106989844e+05
    6.7489854991e-03    1.0107391406e+05
    6.7682852969e-03    1.0107547656e+05
    6.7875892855e-03    1.0107874219e+05
    6.8069072440e-03    1.0107225781e+05
    6.8262196146e-03    1.0106496094e+05
    6.8455408327e-03    1.0106162500e+05
    6.8648783490e-03    1.0105785156e+05
    6.8842126057e-03    1.0105618750e+05
    6.9035501219e-03    1.0105910156e+05
    6.9228983484e-03    1.0105978125e+05
    6.9422605447e-03    1.0106046094e+05
    6.9616222754e-03    1.0105747656e+05
    6.9809844717e-03    1.0105199219e+05
    7.0003494620e-03    1.0105433594e+05
    7.0197195746e-03    1.0105672656e+05
    7.0390999317e-03    1.0105925781e+05
    7.0584909990e-03    1.0105722656e+05
    7.0778946392e-03    1.0105269531e+05
    7.0973108523e-03    1.0105247656e+05
    7.1167377755e-03    1.0105210156e+05
    7.1361698210e-03    1.0105400781e+05
    7.1556069888e-03    1.0105392969e+05
    7.1750483476e-03    1.0105643750e+05
    7.1944966912e-03    1.0106389844e+05
    7.2139529511e-03    1.0106471094e+05
    7.2334166616e-03    1.0106796094e+05
    7.2528840974e-03    1.0107153906e+05
    7.2723543271e-03    1.0107805469e+05
    7.2918278165e-03    1.0108535156e+05
    7.3113050312e-03    1.0109600000e+05
    7.3307845742e-03    1.0111471094e+05
    7.3502692394e-03    1.0113471875e+05
    7.3697618209e-03    1.0115175000e+05
    7.3892641813e-03    1.0117539844e+05
    7.4087800458e-03    1.0120602344e+05
    7.4282912537e-03    1.0123734375e+05
    7.4477996677e-03    1.0127775000e+05
    7.4673094787e-03    1.0132553906e+05
    7.4868267402e-03    1.0137434375e+05
    7.5063589029e-03    1.0143390625e+05
    7.5258887373e-03    1.0150018750e+05
    7.5454111211e-03    1.0156927344e+05
    7.5649353676e-03    1.0165189844e+05
    7.5844703242e-03    1.0173824219e+05
    7.6040057465e-03    1.0183659375e+05
    7.6235276647e-03    1.0194000000e+05
    7.6430505142e-03    1.0204814844e+05
    7.6625877991e-03    1.0215805469e+05
    7.6821087860e-03    1.0226968750e+05
    7.7016241848e-03    1.0238393750e+05
    7.7211544849e-03    1.0248753125e+05
    7.7406810597e-03    1.0258286719e+05
    7.7602043748e-03    1.0266900000e+05
    7.7797495760e-03    1.0273783594e+05
    7.7992938459e-03    1.0278964844e+05
    7.8188432381e-03    1.0282328906e+05
    7.8384252265e-03    1.0283578125e+05
    7.8580006957e-03    1.0282885156e+05
    7.8775910661e-03    1.0279741406e+05
    7.8972103074e-03    1.0273809375e+05
    7.9168286175e-03    1.0265818750e+05
    7.9364804551e-03    1.0256003125e+05
    7.9561360180e-03    1.0244621875e+05
    7.9758102074e-03    1.0232033594e+05
    7.9955114052e-03    1.0219639844e+05
    8.0152126029e-03    1.0210374219e+05
    8.0349491909e-03    1.0207068750e+05
    8.0546662211e-03    1.0216832031e+05
    8.0743944272e-03    1.0252494531e+05
    8.0941170454e-03    1.0334612500e+05
    8.1138620153e-03    1.0496319531e+05
    8.1336386502e-03    1.0786003125e+05
    8.1534720957e-03    1.1257509375e+05
    8.1733558327e-03    1.1948055469e+05
    8.1932730973e-03    1.2848962500e+05
    8.2132071257e-03    1.3870995312e+05
    8.2330890000e-03    1.4859662500e+05
    8.2529615611e-03    1.5648368750e+05
    8.2727763802e-03    1.6141612500e+05
    8.2926023751e-03    1.6330375000e+05
    8.3124246448e-03    1.6290359375e+05
    8.3322748542e-03    1.6113395312e+05
    8.3521194756e-03    1.5891401562e+05
    8.3719678223e-03    1.5692085938e+05
    8.3917891607e-03    1.5538654688e+05
    8.4116021171e-03    1.5428835938e+05
    8.4314141423e-03    1.5342129688e+05
    8.4512168542e-03    1.5255157812e+05
    8.4710381925e-03    1.5149170312e+05
    8.4908353165e-03    1.5014385938e+05
    8.5106678307e-03    1.4854090625e+05
    8.5304882377e-03    1.4675298438e+05
    8.5503393784e-03    1.4492257812e+05
    8.5699046031e-03    1.4312793750e+05
    8.5892248899e-03    1.4147223438e+05
    8.6083402857e-03    1.3997107812e+05
    8.6272666231e-03    1.3860298438e+05
    8.6460309103e-03    1.3734368750e+05
    8.6646731943e-03    1.3617162500e+05
    8.6832325906e-03    1.3506470312e+05
    8.7017398328e-03    1.3399221875e+05
    8.7202098221e-03    1.3295335938e+05
    8.7386453524e-03    1.3194717188e+05
    8.7570473552e-03    1.3098439844e+05
    8.7753897533e-03    1.3007346094e+05
    8.7936492637e-03    1.2923039844e+05
    8.8118780404e-03    1.2844822656e+05
    8.8300397620e-03    1.2774836719e+05
    8.8481390849e-03    1.2710310156e+05
    8.8662039489e-03    1.2651528906e+05
    8.8842641562e-03    1.2596363281e+05
    8.9023411274e-03    1.2544949219e+05
    8.9204348624e-03    1.2495215625e+05
    8.9385388419e-03    1.2446555469e+05
    8.9566456154e-03    1.2399441406e+05
    8.9747514576e-03    1.2353581250e+05
    8.9928600937e-03    1.2309258594e+05
    9.0109808370e-03    1.2266678906e+05
    9.0291155502e-03    1.2225983594e+05
    9.0472688898e-03    1.2186691406e+05
    9.0654399246e-03    1.2149125781e+05
    9.0836230665e-03    1.2112277344e+05
    9.1018192470e-03    1.2077028125e+05
    9.1200266033e-03    1.2042714844e+05
    9.1382460669e-03    1.2009419531e+05
    9.1564757749e-03    1.1977125000e+05
    9.1747231781e-03    1.1945996094e+05
    9.1929892078e-03    1.1916353906e+05
    9.2112747952e-03    1.1888102344e+05
    9.2295790091e-03    1.1861103906e+05
    9.2479009181e-03    1.1836061719e+05
    9.2662386596e-03    1.1813033594e+05
    9.2845931649e-03    1.1791411719e+05
    9.3029672280e-03    1.1771003906e+05
    9.3213599175e-03    1.1752591406e+05
    9.3397712335e-03    1.1735078906e+05
    9.3582011759e-03    1.1717335156e+05
    9.3766497448e-03    1.1700628906e+05
    9.3951150775e-03    1.1683464844e+05
    9.4135999680e-03    1.1666593750e+05
    9.4321016222e-03    1.1649503125e+05
    9.4506228343e-03    1.1632585156e+05
    9.4691645354e-03    1.1615881250e+05
    9.4877239317e-03    1.1599006250e+05
    9.5063010231e-03    1.1582197656e+05
    9.5248948783e-03    1.1565799219e+05
    9.5435054973e-03    1.1549537500e+05
    9.5621328801e-03    1.1533785156e+05
    9.5807760954e-03    1.1517608594e+05
    9.5994332805e-03    1.1502422656e+05
    9.6181081608e-03    1.1488053906e+05
    9.6367979422e-03    1.1472675781e+05
    9.6555035561e-03    1.1458064844e+05
    9.6742231399e-03    1.1442885156e+05
    9.6929576248e-03    1.1428887500e+05
    9.7117051482e-03    1.1415119531e+05
    9.7304685041e-03    1.1401241406e+05
    9.7492448986e-03    1.1388386719e+05
    9.7680361941e-03    1.1375546094e+05
    9.7868405282e-03    1.1363185156e+05
    9.8056588322e-03    1.1350600781e+05
    9.8244920373e-03    1.1339172656e+05
    9.8433364183e-03    1.1327216406e+05
    9.8621929064e-03    1.1315871875e+05
    9.8810633644e-03    1.1304717969e+05
    9.8999459296e-03    1.1293038281e+05
    9.9188406020e-03    1.1281512500e+05
    9.9377483130e-03    1.1270209375e+05
    9.9566690624e-03    1.1258692969e+05
    9.9756028503e-03    1.1246227344e+05
    9.9945487455e-03    1.1233806250e+05
    1.0013507679e-02    1.1220735156e+05
    1.0032479651e-02    1.1208385156e+05
    1.0051463731e-02    1.1196102344e+05
    1.0070459917e-02    1.1184589844e+05
    1.0089469142e-02    1.1172992969e+05
    1.0108492337e-02    1.1162807031e+05
    1.0127528571e-02    1.1152943750e+05
    1.0146577843e-02    1.1143764844e+05
    1.0165639222e-02    1.1136264844e+05
    1.0184712708e-02    1.1129435156e+05
    1.0203798302e-02    1.1124292969e+05
    1.0222896002e-02    1.1119272656e+05
    1.0242006741e-02    1.1115978906e+05
    1.0261129588e-02    1.1112778906e+05
    1.0280264542e-02    1.1110328906e+05
    1.0299413465e-02    1.1107865625e+05
    1.0318575427e-02    1.1106053906e+05
    1.0337748565e-02    1.1103994531e+05
    1.0356934741e-02    1.1101865625e+05
    1.0376133956e-02    1.1099778125e+05
    1.0395346209e-02    1.1096682031e+05
    1.0414571501e-02    1.1092233594e+05
    1.0433809832e-02    1.1086817969e+05
    1.0453061201e-02    1.1080600781e+05
    1.0472324677e-02    1.1074422656e+05
    1.0491601191e-02    1.1067528906e+05
    1.0510892607e-02    1.1060811719e+05
    1.0530196130e-02    1.1053702344e+05
    1.0549513623e-02    1.1046660156e+05
    1.0568842292e-02    1.1039861719e+05
    1.0588183999e-02    1.1033189844e+05
    1.0607538745e-02    1.1027139844e+05
    1.0626907460e-02    1.1022003125e+05
    1.0646289214e-02    1.1018096094e+05
    1.0665684007e-02    1.1014590625e+05
    1.0685092770e-02    1.1011610156e+05
    1.0704516433e-02    1.1008908594e+05
    1.0723951273e-02    1.1005628906e+05
    1.0743400082e-02    1.1002813281e+05
    1.0762862861e-02    1.0999502344e+05
    1.0782338679e-02    1.0996014844e+05
    1.0801829398e-02    1.0991390625e+05
    1.0821334086e-02    1.0987164844e+05
    1.0840852745e-02    1.0981231250e+05
    1.0860386305e-02    1.0975255469e+05
    1.0879932903e-02    1.0968582031e+05
    1.0899493471e-02    1.0961921094e+05
    1.0919069871e-02    1.0955375000e+05
    1.0938662104e-02    1.0949256250e+05
    1.0958270170e-02    1.0943572656e+05
    1.0977892205e-02    1.0938217969e+05
    1.0997531936e-02    1.0933000781e+05
    1.1017187499e-02    1.0928310156e+05
    1.1036860757e-02    1.0924064844e+05
    1.1056551710e-02    1.0920403906e+05
    1.1076259427e-02    1.0916566406e+05
    1.1095987633e-02    1.0913027344e+05
    1.1115733534e-02    1.0908915625e+05
    1.1135498993e-02    1.0905210156e+05
    1.1155283079e-02    1.0900287500e+05
    1.1175086722e-02    1.0895602344e+05
    1.1194912717e-02    1.0890094531e+05
    1.1214758269e-02    1.0884221094e+05
    1.1234625243e-02    1.0877808594e+05
    1.1254511774e-02    1.0870975781e+05
    1.1274418794e-02    1.0863264844e+05
    1.1294347234e-02    1.0854964844e+05
    1.1314296164e-02    1.0846796094e+05
    1.1334266514e-02    1.0837885156e+05
    1.1354257353e-02    1.0829424219e+05
    1.1374268681e-02    1.0820722656e+05
    1.1394302361e-02    1.0812535156e+05
    1.1414355598e-02    1.0804053906e+05
    1.1434430256e-02    1.0794728906e+05
    1.1454525404e-02    1.0785791406e+05
    1.1474640109e-02    1.0777058594e+05
    1.1494777165e-02    1.0768249219e+05
    1.1514934711e-02    1.0760021875e+05
    1.1535113677e-02    1.0752703125e+05
    1.1555313133e-02    1.0745962500e+05
    1.1575534008e-02    1.0740125000e+05
    1.1595774442e-02    1.0733712500e+05
    1.1616035365e-02    1.0728118750e+05
    1.1636316776e-02    1.0722699219e+05
    1.1656619608e-02    1.0716977344e+05
    1.1676942930e-02    1.0711825781e+05
    1.1697287671e-02    1.0706530469e+05
    1.1717652902e-02    1.0700956250e+05
    1.1738038622e-02    1.0694425000e+05
    1.1758443899e-02    1.0687703906e+05
    1.1778870597e-02    1.0680822656e+05
    1.1799318716e-02    1.0674164844e+05
    1.1819788255e-02    1.0667647656e+05
    1.1840280145e-02    1.0661968750e+05
    1.1860790662e-02    1.0656808594e+05
    1.1881321669e-02    1.0652277344e+05
    1.1901874095e-02    1.0648343750e+05
    1.1922447011e-02    1.0643275781e+05
    1.1943042278e-02    1.0639302344e+05
    1.1963658035e-02    1.0634502344e+05
    1.1984295212e-02    1.0630587500e+05
    1.2004952878e-02    1.0626959375e+05
    1.2025631964e-02    1.0623078125e+05
    1.2046331540e-02    1.0619685156e+05
    1.2067052536e-02    1.0616175781e+05
    1.2087795883e-02    1.0611311719e+05
    1.2108558789e-02    1.0606903125e+05
    1.2129344046e-02    1.0601961719e+05
    1.2150149792e-02    1.0597041406e+05
    1.2170976959e-02    1.0591555469e+05
    1.2191825546e-02    1.0586533594e+05
    1.2212695554e-02    1.0581099219e+05
    1.2233586982e-02    1.0575111719e+05
    1.2254500762e-02    1.0569858594e+05
    1.2275436893e-02    1.0563972656e+05
    1.2296394445e-02    1.0558466406e+05
    1.2317374349e-02    1.0552697656e+05
    1.2338375673e-02    1.0547161719e+05
    1.2359398417e-02    1.0540760156e+05
    1.2380442582e-02    1.0534409375e+05
    1.2401508167e-02    1.0527214844e+05
    1.2422595173e-02    1.0519271094e+05
    1.2443703599e-02    1.0511072656e+05
    1.2464834377e-02    1.0503207031e+05
    1.2485986575e-02    1.0495436719e+05
    1.2507158332e-02    1.0488110156e+05
    1.2528351508e-02    1.0479741406e+05
    1.2549565174e-02    1.0472639844e+05
    1.2570801191e-02    1.0466383594e+05
    1.2592058629e-02    1.0460628906e+05
    1.2613337487e-02    1.0454661719e+05
    1.2634636834e-02    1.0450784375e+05
    1.2655957602e-02    1.0446683594e+05
    1.2677297927e-02    1.0443839844e+05
    1.2698660605e-02    1.0441562500e+05
    1.2720043771e-02    1.0439091406e+05
    1.2741449289e-02    1.0436433594e+05
    1.2762876227e-02    1.0433244531e+05
    1.2784325518e-02    1.0429802344e+05
    1.2805794366e-02    1.0426490625e+05
    1.2827285565e-02    1.0422913281e+05
    1.2848797254e-02    1.0419312500e+05
    1.2870330364e-02    1.0415264844e+05
    1.2891885825e-02    1.0411289844e+05
    1.2913462706e-02    1.0407693750e+05
    1.2935061008e-02    1.0404589844e+05
    1.2956679799e-02    1.0402333594e+05
    1.2978320010e-02    1.0400372656e+05
    1.2999981642e-02    1.0398364844e+05
    1.3021663763e-02    1.0396202344e+05
    1.3043368235e-02    1.0394496875e+05
    1.3065092266e-02    1.0391558594e+05
    1.3086837716e-02    1.0388886719e+05
    1.3108605519e-02    1.0385812500e+05
    1.3130392879e-02    1.0381493750e+05
    1.3152201660e-02    1.0377286719e+05
    1.3174032792e-02    1.0372736719e+05
    1.3195885345e-02    1.0368196875e+05
    1.3217759319e-02    1.0364013281e+05
    1.3239653781e-02    1.0359788281e+05
    1.3261569664e-02    1.0356138281e+05
    1.3283506967e-02    1.0352610156e+05
    1.3305463828e-02    1.0349335156e+05
    1.3327440247e-02    1.0345474219e+05
    1.3349435292e-02    1.0342246094e+05
    1.3371448033e-02    1.0339188281e+05
    1.3393475674e-02    1.0336183594e+05
    1.3415516354e-02    1.0333847656e+05
    1.3437564485e-02    1.0331333594e+05
    1.3459613547e-02    1.0329300000e+05
    1.3481658883e-02    1.0327863281e+05
    1.3503690250e-02    1.0327322656e+05
    1.3525702059e-02    1.0328703125e+05
    1.3547683135e-02    1.0333061719e+05
    1.3569628820e-02    1.0340442969e+05
    1.3591531664e-02    1.0353960156e+05
    1.3613392599e-02    1.0373625000e+05
    1.3635210693e-02    1.0401136719e+05
    1.3656994328e-02    1.0438230469e+05
    1.3678749092e-02    1.0486849219e+05
    1.3700488023e-02    1.0548092969e+05
    1.3722228818e-02    1.0621049219e+05
    1.3743981719e-02    1.0705536719e+05
    1.3765762560e-02    1.0798168750e+05
    1.3787578791e-02    1.0894052344e+05
    1.3809437864e-02    1.0986421094e+05
    1.3831341639e-02    1.1070007031e+05
    1.3853288256e-02    1.1137753906e+05
    1.3875273056e-02    1.1184552344e+05
    1.3897285797e-02    1.1207536719e+05
    1.3919321820e-02    1.1207357031e+05
    1.3941374607e-02    1.1184846094e+05
    1.3963440433e-02    1.1142789844e+05
    1.3985517435e-02    1.1085724219e+05
    1.4007603750e-02    1.1018405469e+05
    1.4029704034e-02    1.0946635156e+05
    1.4051820152e-02    1.0874680469e+05
    1.4073957689e-02    1.0808103906e+05
    1.4096121304e-02    1.0750232031e+05
    1.4118315652e-02    1.0703147656e+05
    1.4140545391e-02    1.0666436719e+05
    1.4162814245e-02    1.0637839844e+05
    1.4185124077e-02    1.0614031250e+05
    1.4207473956e-02    1.0591432031e+05
    1.4229862019e-02    1.0566921094e+05
    1.4252286404e-02    1.0537372656e+05
    1.4274741523e-02    1.0501928125e+05
    1.4297228307e-02    1.0461278906e+05
    1.4319745824e-02    1.0415741406e+05
    1.4342290349e-02    1.0367172656e+05
    1.4364863746e-02    1.0318253906e+05
    1.4387467876e-02    1.0271057031e+05
    1.4410103671e-02    1.0228730469e+05
    1.4432771131e-02    1.0192550781e+05
    1.4455472119e-02    1.0163271875e+05
    1.4478209428e-02    1.0141312500e+05
    1.4500979334e-02    1.0126960156e+05
    1.4523783699e-02    1.0119097656e+05
    1.4546621591e-02    1.0117039844e+05
    1.4569494873e-02    1.0118858594e+05
    1.4592399821e-02    1.0123188281e+05
    1.4615339227e-02    1.0128978906e+05
    1.4638305642e-02    1.0134389844e+05
    1.4661304653e-02    1.0139171094e+05
    1.4684336260e-02    1.0143253906e+05
    1.4707398601e-02    1.0144246875e+05
    1.4730494469e-02    1.0144510156e+05
    1.4753622934e-02    1.0141891406e+05
    1.4776783995e-02    1.0137786719e+05
    1.4799979515e-02    1.0132861719e+05
    1.4823205769e-02    1.0127664844e+05
    1.4846466482e-02    1.0123000781e+05
    1.4869757928e-02    1.0119986719e+05
    1.4893081971e-02    1.0117114844e+05
    1.4916437678e-02    1.0115875781e+05
    1.4939822257e-02    1.0116144531e+05
    1.4963239431e-02    1.0117817969e+05
    1.4986685477e-02    1.0120740625e+05
    1.5010161325e-02    1.0125131250e+05
    1.5033668838e-02    1.0130627344e+05
    1.5057205223e-02    1.0136768750e+05
    1.5080772340e-02    1.0143660156e+05
    1.5104367398e-02    1.0150712500e+05
    1.5127992257e-02    1.0157839844e+05
    1.5151646920e-02    1.0164039844e+05
    1.5175330453e-02    1.0168896094e+05
    1.5199041925e-02    1.0172246094e+05
    1.5222782269e-02    1.0174739844e+05
    1.5246548690e-02    1.0175239844e+05
    1.5270343982e-02    1.0175996875e+05
    1.5294168144e-02    1.0176493750e+05
    1.5318016522e-02    1.0177596094e+05
    1.5341891907e-02    1.0180025000e+05
    1.5365792438e-02    1.0182896094e+05
    1.5389721841e-02    1.0186735156e+05
    1.5413676389e-02    1.0190627344e+05
    1.5437657945e-02    1.0194883594e+05
    1.5461664647e-02    1.0198034375e+05
    1.5485695563e-02    1.0200475000e+05
    1.5509752557e-02    1.0202653125e+05
    1.5533835627e-02    1.0203457031e+05
    1.5557944775e-02    1.0203302344e+05
    1.5582079068e-02    1.0202272656e+05
    1.5606240369e-02    1.0200253125e+05
    1.5630424023e-02    1.0198678906e+05
    1.5654634684e-02    1.0196835156e+05
    1.5678871423e-02    1.0196234375e+05
    1.5703132376e-02    1.0196417969e+05
    1.5727419406e-02    1.0196607031e+05
    1.5751728788e-02    1.0196768750e+05
    1.5776060522e-02    1.0197200000e+05
    1.5800418332e-02    1.0196952344e+05
    1.5824800357e-02    1.0197121094e+05
    1.5849204734e-02    1.0196021875e+05
    1.5873633325e-02    1.0195432031e+05
    1.5898084268e-02    1.0194164844e+05
    1.5922557563e-02    1.0193203906e+05
    1.5947058797e-02    1.0191712500e+05
    1.5971582383e-02    1.0189746094e+05
    1.5996130183e-02    1.0187422656e+05
    1.6020702198e-02    1.0184453906e+05
    1.6045298427e-02    1.0181756250e+05
    1.6069920734e-02    1.0178836719e+05
    1.6094569117e-02    1.0175625781e+05
    1.6119243577e-02    1.0172816406e+05
    1.6143942252e-02    1.0169628906e+05
    1.6168667004e-02    1.0166796875e+05
    1.6193419695e-02    1.0163734375e+05
    1.6218200326e-02    1.0160566406e+05
    1.6243007034e-02    1.0157369531e+05
    1.6267839819e-02    1.0154846094e+05
    1.6292702407e-02    1.0151815625e+05
    1.6317596659e-02    1.0149262500e+05
    1.6342513263e-02    1.0145447656e+05
    1.6367461532e-02    1.0140975781e+05
    1.6392435879e-02    1.0135678906e+05
    1.6417443752e-02    1.0130153125e+05
    1.6442479566e-02    1.0124564844e+05
    1.6467543319e-02    1.0117544531e+05
    1.6492636874e-02    1.0110910156e+05
    1.6517756507e-02    1.0102828906e+05
    1.6542907804e-02    1.0094558594e+05
    1.6568088904e-02    1.0085935156e+05
    1.6593271866e-02    1.0076214844e+05
    1.6618426889e-02    1.0067202344e+05
    1.6643559560e-02    1.0057741406e+05
    1.6668669879e-02    1.0047506250e+05
    1.6693757847e-02    1.0037993750e+05
    1.6718825325e-02    1.0028624219e+05
    1.6743874177e-02    1.0018766406e+05
    1.6768900678e-02    1.0009021875e+05
    1.6793908551e-02    1.0000625781e+05
    1.6818899661e-02    9.9932726562e+04
    1.6843874007e-02    9.9865226562e+04
    1.6868829727e-02    9.9816812500e+04
    1.6893770546e-02    9.9770726562e+04
    1.6918692738e-02    9.9739460938e+04
    1.6943598166e-02    9.9716351562e+04
    1.6968490556e-02    9.9698906250e+04
    1.6993366182e-02    9.9694593750e+04
    1.7018226907e-02    9.9698531250e+04
    1.7043072730e-02    9.9701367188e+04
    1.7067901790e-02    9.9713742188e+04
    1.7092714086e-02    9.9732585938e+04
    1.7117511481e-02    9.9742195312e+04
    1.7142292112e-02    9.9749437500e+04
    1.7167057842e-02    9.9757500000e+04
    1.7191808671e-02    9.9770812500e+04
    1.7216544598e-02    9.9790507812e+04
    1.7241263762e-02    9.9807664062e+04
    1.7265968025e-02    9.9825687500e+04
    1.7290659249e-02    9.9847460938e+04
    1.7315333709e-02    9.9875898438e+04
    1.7339993268e-02    9.9905726562e+04
    1.7364639789e-02    9.9946054688e+04
    1.7389267683e-02    9.9996335938e+04
    1.7413880676e-02    1.0005061719e+05
    1.7438478768e-02    1.0010288281e+05
    1.7463061959e-02    1.0014935156e+05
    1.7487626523e-02    1.0020083594e+05
    1.7512176186e-02    1.0025481250e+05
    1.7536709085e-02    1.0030208594e+05
    1.7561223358e-02    1.0034035156e+05
    1.7585720867e-02    1.0037797656e+05
    1.7610201612e-02    1.0041271875e+05
    1.7634663731e-02    1.0044753125e+05
    1.7659107223e-02    1.0047741406e+05
    1.7683532089e-02    1.0049605469e+05
    1.7707940191e-02    1.0051591406e+05
    1.7732329667e-02    1.0053217969e+05
    1.7756698653e-02    1.0054534375e+05
    1.7781050876e-02    1.0055635156e+05
    1.7805384472e-02    1.0055335156e+05
    1.7829699442e-02    1.0054952344e+05
    1.7853999510e-02    1.0053439844e+05
    1.7878280953e-02    1.0051956250e+05
    1.7902545631e-02    1.0050605469e+05
    1.7926793545e-02    1.0048135156e+05
    1.7951028422e-02    1.0046022656e+05
    1.7975246534e-02    1.0043363281e+05
    1.7999447882e-02    1.0040421875e+05
    1.8023636192e-02    1.0037428906e+05
    1.8047811463e-02    1.0034669531e+05
    1.8071975559e-02    1.0032446094e+05
    1.8096126616e-02    1.0030224219e+05
    1.8120266497e-02    1.0028639844e+05
    1.8144397065e-02    1.0027716406e+05
    1.8168520182e-02    1.0027034375e+05
    1.8192630261e-02    1.0026608594e+05
    1.8216732889e-02    1.0026375781e+05
    1.8240824342e-02    1.0026052344e+05
    1.8264908344e-02    1.0027112500e+05
    1.8288983032e-02    1.0028340625e+05
    1.8313048407e-02    1.0029402344e+05
    1.8337102607e-02    1.0030994531e+05
    1.8361147493e-02    1.0032065625e+05
    1.8385183066e-02    1.0033917969e+05
    1.8409207463e-02    1.0035925781e+05
    1.8433224410e-02    1.0038487500e+05
    1.8457230181e-02    1.0041402344e+05
    1.8481226638e-02    1.0044272656e+05
    1.8505210057e-02    1.0047715625e+05
    1.8529184163e-02    1.0051784375e+05
    1.8553148955e-02    1.0056678906e+05
    1.8577100709e-02    1.0061989844e+05
    1.8601041287e-02    1.0067688281e+05
    1.8624972552e-02    1.0074518750e+05
    1.8648892641e-02    1.0081525000e+05
    1.8672801554e-02    1.0088690625e+05
    1.8696699291e-02    1.0095742969e+05
    1.8720587716e-02    1.0102232031e+05
    1.8744463101e-02    1.0108297656e+05
    1.8768329173e-02    1.0113532031e+05
    1.8792184070e-02    1.0117665625e+05
    1.8816027790e-02    1.0120350000e+05
    1.8839860335e-02    1.0121863281e+05
    1.8863683566e-02    1.0122735156e+05
    1.8887493759e-02    1.0122355469e+05
    1.8911294639e-02    1.0122077344e+05
    1.8935086206e-02    1.0121627344e+05
    1.8958866596e-02    1.0121710156e+05
    1.8982635811e-02    1.0121921094e+05
    1.9006397575e-02    1.0122960156e+05
    1.9030146301e-02    1.0124289844e+05
    1.9053885713e-02    1.0127032031e+05
    1.9077615812e-02    1.0130161719e+05
    1.9101334736e-02    1.0134478906e+05
    1.9125042483e-02    1.0139199219e+05
    1.9148740917e-02    1.0144700000e+05
    1.9172428176e-02    1.0150216406e+05
    1.9196104258e-02    1.0156639844e+05
    1.9219771028e-02    1.0163494531e+05
    1.9243424758e-02    1.0170632031e+05
    1.9267069176e-02    1.0178008594e+05
    1.9290700555e-02    1.0185128906e+05
    1.9314322621e-02    1.0192414844e+05
    1.9337931648e-02    1.0200730469e+05
    1.9361529499e-02    1.0209121094e+05
    1.9385114312e-02    1.0218533594e+05
    1.9408687949e-02    1.0228066406e+05
    1.9432250410e-02    1.0238437500e+05
    1.9455801696e-02    1.0248953125e+05
    1.9479339942e-02    1.0259928906e+05
    1.9502865151e-02    1.0270758594e+05
    1.9526379183e-02    1.0280550000e+05
    1.9549878314e-02    1.0289346094e+05
    1.9573366269e-02    1.0297666406e+05
    1.9596841186e-02    1.0305041406e+05
    1.9620303065e-02    1.0309991406e+05
    1.9643751904e-02    1.0312547656e+05
    1.9667187706e-02    1.0312400000e+05
    1.9690606743e-02    1.0309771094e+05
    1.9714014605e-02    1.0304286719e+05
    1.9737409428e-02    1.0296427344e+05
    1.9760791212e-02    1.0286435156e+05
    1.9784159958e-02    1.0273977344e+05
    1.9807513803e-02    1.0259180469e+05
    1.9830854610e-02    1.0241282031e+05
    1.9854182377e-02    1.0221178906e+05
    1.9877497107e-02    1.0200416406e+05
    1.9900798798e-02    1.0178989844e+05
    1.9924087450e-02    1.0157433594e+05
    1.9947361201e-02    1.0137310156e+05
    1.9970623776e-02    1.0118878125e+05
    1.9993871450e-02    1.0102205469e+05
    2.0017107949e-02    1.0088152344e+05
    2.0040329546e-02    1.0076891406e+05
    2.0063538104e-02    1.0068346094e+05
    2.0086731762e-02    1.0061928906e+05
    2.0109914243e-02    1.0057550000e+05
    2.0133081824e-02    1.0055240625e+05
    2.0156236365e-02    1.0053871094e+05
    2.0179376006e-02    1.0053302344e+05
    2.0202504471e-02    1.0054125781e+05
    2.0225618035e-02    1.0054871094e+05
    2.0248720422e-02    1.0056747656e+05
    2.0271807909e-02    1.0058184375e+05
    2.0294882357e-02    1.0059810156e+05
    2.0317947492e-02    1.0062053125e+05
    2.0340997726e-02    1.0063938281e+05
    2.0364036784e-02    1.0066364844e+05
    2.0387060940e-02    1.0069794531e+05
    2.0410073921e-02    1.0073608594e+05
    2.0433073863e-02    1.0076935156e+05
    2.0456060767e-02    1.0081832031e+05
    2.0479036495e-02    1.0087055469e+05
    2.0501999184e-02    1.0092852344e+05
    2.0524948835e-02    1.0099231250e+05
    2.0547885448e-02    1.0107002344e+05
    2.0570809022e-02    1.0114708594e+05
    2.0593719557e-02    1.0122808594e+05
    2.0616617054e-02    1.0132355469e+05
    2.0639499649e-02    1.0143035156e+05
    2.0662369207e-02    1.0154096094e+05
    2.0685223863e-02    1.0166310156e+05
    2.0708063617e-02    1.0177921094e+05
    2.0730890334e-02    1.0190396094e+05
    2.0753700286e-02    1.0202925781e+05
    2.0776495337e-02    1.0214377344e+05
    2.0799275488e-02    1.0225953125e+05
    2.0822042599e-02    1.0236740625e+05
    2.0844791085e-02    1.0246753906e+05
    2.0867524669e-02    1.0256214844e+05
    2.0890241489e-02    1.0265083594e+05
    2.0912945271e-02    1.0272702344e+05
    2.0935632288e-02    1.0280160156e+05
    2.0958306268e-02    1.0285977344e+05
    2.0980965346e-02    1.0291971875e+05
    2.1003607661e-02    1.0296469531e+05
    2.1026238799e-02    1.0300428125e+05
    2.1048855036e-02    1.0303689844e+05
    2.1071458235e-02    1.0306584375e+05
    2.1094048396e-02    1.0308478906e+05
    2.1116625518e-02    1.0309915625e+05
    2.1139191464e-02    1.0310189844e+05
    2.1161744371e-02    1.0309822656e+05
    2.1184286103e-02    1.0308847656e+05
    2.1206818521e-02    1.0307959375e+05
    2.1229337901e-02    1.0306003125e+05
    2.1251846105e-02    1.0303677344e+05
    2.1274344996e-02    1.0300993750e+05
    2.1296832711e-02    1.0297747656e+05
    2.1319312975e-02    1.0294234375e+05
    2.1341778338e-02    1.0291386719e+05
    2.1364232525e-02    1.0287452344e+05
    2.1386675537e-02    1.0283142969e+05
    2.1409107372e-02    1.0277883594e+05
    2.1431528032e-02    1.0272399219e+05
    2.1453931928e-02    1.0267391406e+05
    2.1476324648e-02    1.0261696875e+05
    2.1498700604e-02    1.0255134375e+05
    2.1521063522e-02    1.0248749219e+05
    2.1543409675e-02    1.0241709375e+05
    2.1565740928e-02    1.0234867969e+05
    2.1588053554e-02    1.0227177344e+05
    2.1610351279e-02    1.0218696094e+05
    2.1632634103e-02    1.0210878906e+05
    2.1654898301e-02    1.0203441406e+05
    2.1677147597e-02    1.0196024219e+05
    2.1699378267e-02    1.0188846094e+05
    2.1721594036e-02    1.0181989844e+05
    2.1743793041e-02    1.0175622656e+05
    2.1765975282e-02    1.0169397656e+05
    2.1788140759e-02    1.0164288281e+05
    2.1810289472e-02    1.0159446094e+05
    2.1832419559e-02    1.0154778125e+05
    2.1854531020e-02    1.0150764844e+05
    2.1876627579e-02    1.0147650781e+05
    2.1898705512e-02    1.0145094531e+05
    2.1920768544e-02    1.0142694531e+05
    2.1942811087e-02    1.0141290625e+05
    2.1964838728e-02    1.0140752344e+05
    2.1986849606e-02    1.0140644531e+05
    2.2008845583e-02    1.0139716406e+05
    2.2030822933e-02    1.0138880469e+05
    2.2052785382e-02    1.0138977344e+05
    2.2074732929e-02    1.0138284375e+05
    2.2096665576e-02    1.0138752344e+05
    2.2118583322e-02    1.0139688281e+05
    2.2140489891e-02    1.0140166406e+05
    2.2162377834e-02    1.0140478125e+05
    2.2184254602e-02    1.0140821094e+05
    2.2206118330e-02    1.0141381250e+05
    2.2227969021e-02    1.0142141406e+05
    2.2249806672e-02    1.0142633594e+05
    2.2271629423e-02    1.0142838281e+05
    2.2293440998e-02    1.0143559375e+05
    2.2315241396e-02    1.0144082031e+05
    2.2337028757e-02    1.0144950781e+05
    2.2358803079e-02    1.0144531250e+05
    2.2380566224e-02    1.0144637500e+05
    2.2402318195e-02    1.0144214844e+05
    2.2424057126e-02    1.0144078906e+05
    2.2445784882e-02    1.0143635156e+05
    2.2467501462e-02    1.0143090625e+05
    2.2489206865e-02    1.0142391406e+05
    2.2510899231e-02    1.0141500781e+05
    2.2532582283e-02    1.0141883594e+05
    2.2554252297e-02    1.0141678906e+05
    2.2575911134e-02    1.0141635156e+05
    2.2597560659e-02    1.0141863281e+05
    2.2619199008e-02    1.0141819531e+05
    2.2640828043e-02    1.0142205469e+05
    2.2662445903e-02    1.0142665625e+05
    2.2684050724e-02    1.0143819531e+05
    2.2705646232e-02    1.0144178906e+05
    2.2727232426e-02    1.0145644531e+05
    2.2748809308e-02    1.0146407031e+05
    2.2770375013e-02    1.0147291406e+05
    2.2791929543e-02    1.0147728906e+05
    2.2813472897e-02    1.0147696094e+05
    2.2835006937e-02    1.0148421875e+05
    2.2856531665e-02    1.0148715625e+05
    2.2878047079e-02    1.0148800781e+05
    2.2899549454e-02    1.0149139844e+05
    2.2921044379e-02    1.0150521094e+05
    2.2942528129e-02    1.0149853906e+05
    2.2964000702e-02    1.0150319531e+05
    2.2985465825e-02    1.0150660156e+05
    2.3006917909e-02    1.0150866406e+05
    2.3028360680e-02    1.0151165625e+05
    2.3049792275e-02    1.0151441406e+05
    2.3071214557e-02    1.0150662500e+05
    2.3092625663e-02    1.0150752344e+05
    2.3114029318e-02    1.0150946094e+05
    2.3135419935e-02    1.0151152344e+05
    2.3156799376e-02    1.0151700000e+05
    2.3178169504e-02    1.0151939844e+05
    2.3199530318e-02    1.0151725000e+05
    2.3220879957e-02    1.0151907031e+05
    2.3242218420e-02    1.0151908594e+05
    2.3263547570e-02    1.0151428125e+05
    2.3284865543e-02    1.0151037500e+05
    2.3306174204e-02    1.0152088281e+05
    2.3327469826e-02    1.0152383594e+05
    2.3348756135e-02    1.0152694531e+05
    2.3370031267e-02    1.0152777344e+05
    2.3391297087e-02    1.0152867969e+05
    2.3412553594e-02    1.0153171094e+05
    2.3433798924e-02    1.0153249219e+05
    2.3455033079e-02    1.0153447656e+05
    2.3476256058e-02    1.0154249219e+05
    2.3497469723e-02    1.0154915625e+05
    2.3518672213e-02    1.0155266406e+05
    2.3539865389e-02    1.0155633594e+05
    2.3561049253e-02    1.0155675781e+05
    2.3582221940e-02    1.0155965625e+05
    2.3603385314e-02    1.0156797656e+05
    2.3624535650e-02    1.0158484375e+05
    2.3645676672e-02    1.0158959375e+05
    2.3666808382e-02    1.0159658594e+05
    2.3687927052e-02    1.0159783594e+05
    2.3709038273e-02    1.0159878125e+05
    2.3730138317e-02    1.0161383594e+05
    2.3751227185e-02    1.0161743750e+05
    2.3772306740e-02    1.0162314844e+05
    2.3793375120e-02    1.0161703906e+05
    2.3814432323e-02    1.0161977344e+05
    2.3835480213e-02    1.0162336719e+05
    2.3856516927e-02    1.0162675000e+05
    2.3877544329e-02    1.0162628906e+05
    2.3898560554e-02    1.0162046875e+05
    2.3919565603e-02    1.0161640625e+05
    2.3940561339e-02    1.0161202344e+05
    2.3961545900e-02    1.0160581250e+05
    2.3982519284e-02    1.0160178906e+05
    2.4003483355e-02    1.0160066406e+05
    2.4024436250e-02    1.0159418750e+05
    2.4045377970e-02    1.0158631250e+05
    2.4066310376e-02    1.0157838281e+05
    2.4087233469e-02    1.0156786719e+05
    2.4108145386e-02    1.0155990625e+05
    2.4129044265e-02    1.0155619531e+05
    2.4149935693e-02    1.0154046094e+05
    2.4170814082e-02    1.0153117969e+05
    2.4191683158e-02    1.0152377344e+05
    2.4212542921e-02    1.0151619531e+05
    2.4233391508e-02    1.0151200781e+05
    2.4254228920e-02    1.0150791406e+05
    2.4275057018e-02    1.0150764844e+05
    2.4295873940e-02    1.0150093750e+05
    2.4316681549e-02    1.0149553906e+05
    2.4337477982e-02    1.0149253906e+05
    2.4358265102e-02    1.0149900781e+05
    2.4379042909e-02    1.0149672656e+05
    2.4399809539e-02    1.0149600781e+05
    2.4420566857e-02    1.0150030469e+05
    2.4441312999e-02    1.0150127344e+05
    2.4462047964e-02    1.0150028906e+05
    2.4482775480e-02    1.0149818750e+05
    2.4503491819e-02    1.0149372656e+05
    2.4524198845e-02    1.0149361719e+05
    2.4544894695e-02    1.0149242969e+05
    2.4565581232e-02    1.0149032031e+05
    2.4586258456e-02    1.0149397656e+05
    2.4606924504e-02    1.0149347656e+05
    2.4627581239e-02    1.0149046094e+05
    2.4648228660e-02    1.0148392969e+05
    2.4668866768e-02    1.0148147656e+05
    2.4689495564e-02    1.0147393750e+05
    2.4710113183e-02    1.0147084375e+05
    2.4730721489e-02    1.0146178125e+05
    2.4751318619e-02    1.0145571875e+05
    2.4771906435e-02    1.0144571094e+05
    2.4792486802e-02    1.0144352344e+05
    2.4813055992e-02    1.0143671094e+05
    2.4833614007e-02    1.0143299219e+05
    2.4854162708e-02    1.0141871875e+05
    2.4874702096e-02    1.0141235156e+05
    2.4895232171e-02    1.0140741406e+05
    2.4915752932e-02    1.0141434375e+05
    2.4936262518e-02    1.0141134375e+05
    2.4956764653e-02    1.0140842969e+05
    2.4977253750e-02    1.0139989844e+05
    2.4997735396e-02    1.0138985156e+05
    2.5018205866e-02    1.0139502344e+05
    2.5038668886e-02    1.0139039844e+05
    2.5059120730e-02    1.0139206250e+05
    2.5079563260e-02    1.0139412500e+05
    2.5099996477e-02    1.0139814844e+05
    2.5120420381e-02    1.0140350000e+05
    2.5140833110e-02    1.0140597656e+05
    2.5161236525e-02    1.0140553125e+05
    2.5181630626e-02    1.0141387500e+05
    2.5202017277e-02    1.0142433594e+05
    2.5222390890e-02    1.0143228125e+05
    2.5242757052e-02    1.0144203906e+05
    2.5263112038e-02    1.0145035156e+05
    2.5283459574e-02    1.0145890625e+05
    2.5303795934e-02    1.0147396875e+05
    2.5324124843e-02    1.0148264844e+05
    2.5344440714e-02    1.0149453906e+05
    2.5364749134e-02    1.0150944531e+05
    2.5385048240e-02    1.0152010156e+05
    2.5405339897e-02    1.0153155469e+05
    2.5425618514e-02    1.0154649219e+05
    2.5445887819e-02    1.0155235156e+05
    2.5466147810e-02    1.0156049219e+05
    2.5486400351e-02    1.0156137500e+05
    2.5506639853e-02    1.0156860156e+05
    2.5526873767e-02    1.0156621094e+05
    2.5547094643e-02    1.0157217969e+05
    2.5567308068e-02    1.0156710156e+05
    2.5587510318e-02    1.0156321875e+05
    2.5607703254e-02    1.0155021094e+05
    2.5627886876e-02    1.0154289844e+05
    2.5648061186e-02    1.0153178906e+05
    2.5668226182e-02    1.0151521094e+05
    2.5688380003e-02    1.0149327344e+05
    2.5708526373e-02    1.0147071094e+05
    2.5728661567e-02    1.0144921875e+05
    2.5748789310e-02    1.0142552344e+05
    2.5768904015e-02    1.0140542969e+05
    2.5789011270e-02    1.0139064844e+05
    2.5809109211e-02    1.0137694531e+05
    2.5829195976e-02    1.0136567969e+05
    2.5849273428e-02    1.0136292969e+05
    2.5869343430e-02    1.0135967969e+05
    2.5889402255e-02    1.0136066406e+05
    2.5909451768e-02    1.0136271094e+05
    2.5929493830e-02    1.0136486719e+05
    2.5949522853e-02    1.0137758594e+05
    2.5969544426e-02    1.0138391406e+05
    2.5989556685e-02    1.0139966406e+05
    2.6009559631e-02    1.0140760156e+05
    2.6029553264e-02    1.0142257031e+05
    2.6049537584e-02    1.0143717969e+05
    2.6069512591e-02    1.0144355469e+05
    2.6089478284e-02    1.0145527344e+05
    2.6109432802e-02    1.0146387500e+05
    2.6129379869e-02    1.0147514844e+05
    2.6149315760e-02    1.0148319531e+05
    2.6169244200e-02    1.0148928906e+05
    2.6189163327e-02    1.0149560156e+05
    2.6209073141e-02    1.0150928125e+05
    2.6228975505e-02    1.0151986719e+05
    2.6248866692e-02    1.0152777344e+05
    2.6268748567e-02    1.0153600000e+05
    2.6288621128e-02    1.0154338281e+05
    2.6308484375e-02    1.0156249219e+05
    2.6328338310e-02    1.0157066406e+05
    2.6348184794e-02    1.0159087500e+05
    2.6368021965e-02    1.0160715625e+05
    2.6387847960e-02    1.0161987500e+05
    2.6407664642e-02    1.0164267969e+05
    2.6427472010e-02    1.0165825781e+05
    2.6447271928e-02    1.0167874219e+05
    2.6467062533e-02    1.0169164844e+05
    2.6486843824e-02    1.0170924219e+05
    2.6506617665e-02    1.0172200000e+05
    2.6526380330e-02    1.0172747656e+05
    2.6546133682e-02    1.0173975781e+05
    2.6565877721e-02    1.0175189844e+05
    2.6585612446e-02    1.0175785156e+05
    2.6605339721e-02    1.0176052344e+05
    2.6625057682e-02    1.0175866406e+05
    2.6644766331e-02    1.0175897656e+05
    2.6664465666e-02    1.0175591406e+05
    2.6684155688e-02    1.0175513281e+05
    2.6703836396e-02    1.0175138281e+05
    2.6723509654e-02    1.0174796094e+05
    2.6743173599e-02    1.0174625781e+05
    2.6762828231e-02    1.0174014844e+05
    2.6782475412e-02    1.0173759375e+05
    2.6802113280e-02    1.0173338281e+05
    2.6821739972e-02    1.0173299219e+05
    2.6841359213e-02    1.0172414844e+05
    2.6860967278e-02    1.0172403906e+05
    2.6880569756e-02    1.0171702344e+05
    2.6900164783e-02    1.0171875000e+05
    2.6919748634e-02    1.0171931250e+05
    2.6939325035e-02    1.0171063281e+05
    2.6958892122e-02    1.0171087500e+05
    2.6978449896e-02    1.0170884375e+05
    2.6997998357e-02    1.0170886719e+05
    2.7017539367e-02    1.0170871875e+05
    2.7037071064e-02    1.0170252344e+05
    2.7056595311e-02    1.0169639844e+05
    2.7076110244e-02    1.0169733594e+05
    2.7095617726e-02    1.0170671094e+05
    2.7115115896e-02    1.0170738281e+05
    2.7134604752e-02    1.0170722656e+05
    2.7154086158e-02    1.0170600000e+05
    2.7173558250e-02    1.0170708594e+05
    2.7193021029e-02    1.0170697656e+05
    2.7212476358e-02    1.0170810156e+05
    2.7231922373e-02    1.0170810156e+05
    2.7251357213e-02    1.0171162500e+05
    2.7270786464e-02    1.0171285156e+05
    2.7290204540e-02    1.0171056250e+05
    2.7309613302e-02    1.0171147656e+05
    2.7329014614e-02    1.0171378125e+05
    2.7348404750e-02    1.0171178906e+05
    2.7367785573e-02    1.0171193750e+05
    2.7387158945e-02    1.0170982031e+05
    2.7406521142e-02    1.0171000781e+05
    2.7425874025e-02    1.0171464844e+05
    2.7445219457e-02    1.0171368750e+05
    2.7464553714e-02    1.0171142969e+05
    2.7483878657e-02    1.0170671094e+05
    2.7503194287e-02    1.0171072656e+05
    2.7522502467e-02    1.0170903906e+05
    2.7541799471e-02    1.0170396094e+05
    2.7561087161e-02    1.0170547656e+05
    2.7580365539e-02    1.0170486719e+05
    2.7599634603e-02    1.0170441406e+05
    2.7618894354e-02    1.0170535156e+05
    2.7638144791e-02    1.0170152344e+05
    2.7657385916e-02    1.0170339844e+05
    2.7676619589e-02    1.0170072656e+05
    2.7695843950e-02    1.0170139844e+05
    2.7715058997e-02    1.0170442969e+05
    2.7734262869e-02    1.0170156250e+05
    2.7753459290e-02    1.0170314844e+05
    2.7772648260e-02    1.0170472656e+05
    2.7791827917e-02    1.0170288281e+05
    2.7810998261e-02    1.0169411719e+05
    2.7830159292e-02    1.0169214844e+05
    2.7849311009e-02    1.0169715625e+05
    2.7868455276e-02    1.0169760156e+05
    2.7887590230e-02    1.0169837500e+05
    2.7906717733e-02    1.0169813281e+05
    2.7925835922e-02    1.0169803906e+05
    2.7944946662e-02    1.0170380469e+05
    2.7964048088e-02    1.0170902344e+05
    2.7983140200e-02    1.0171191406e+05
    2.8002224863e-02    1.0171161719e+05
    2.8021300212e-02    1.0171383594e+05
    2.8040368110e-02    1.0171625000e+05
    2.8059426695e-02    1.0172246094e+05
    2.8078475967e-02    1.0172639844e+05
    2.8097519651e-02    1.0173041406e+05
    2.8116554022e-02    1.0173239844e+05
    2.8135580942e-02    1.0173547656e+05
    2.8154598549e-02    1.0173631250e+05
    2.8173606843e-02    1.0173846094e+05
    2.8192607686e-02    1.0174541406e+05
    2.8211599216e-02    1.0174902344e+05
    2.8230583295e-02    1.0175072656e+05
    2.8249559924e-02    1.0176065625e+05
    2.8268527240e-02    1.0176387500e+05
    2.8287487105e-02    1.0176927344e+05
    2.8306435794e-02    1.0177047656e+05
    2.8325378895e-02    1.0177599219e+05
    2.8344312683e-02    1.0177942969e+05
    2.8363237157e-02    1.0178061719e+05
    2.8382156044e-02    1.0178178125e+05
    2.8401065618e-02    1.0178978906e+05
    2.8419965878e-02    1.0178913281e+05
    2.8438858688e-02    1.0179266406e+05
    2.8457742184e-02    1.0179730469e+05
    2.8476616368e-02    1.0180197656e+05
    2.8495483100e-02    1.0180540625e+05
    2.8514338657e-02    1.0180757031e+05
    2.8533160686e-02    1.0180969531e+05
    2.8551930562e-02    1.0181518750e+05
    2.8570635244e-02    1.0181709375e+05
    2.8589271009e-02    1.0181872656e+05
    2.8607837856e-02    1.0182238281e+05
    2.8626350686e-02    1.0181430469e+05
    2.8644818813e-02    1.0181650781e+05
    2.8663259000e-02    1.0181892969e+05
    2.8681686148e-02    1.0182006250e+05
    2.8700113297e-02    1.0182357031e+05
    2.8718546033e-02    1.0182356250e+05
    2.8736986220e-02    1.0182539844e+05
    2.8755431995e-02    1.0182233594e+05
    2.8773877770e-02    1.0181733594e+05
    2.8792314231e-02    1.0181800000e+05
    2.8810730204e-02    1.0181758594e+05
    2.8829116374e-02    1.0182663281e+05
    2.8847465292e-02    1.0182893750e+05
    2.8865773231e-02    1.0182560156e+05
    2.8884036466e-02    1.0182164844e+05
    2.8902258724e-02    1.0182196094e+05
    2.8920443729e-02    1.0181990625e+05
    2.8938598931e-02    1.0182008594e+05
    2.8956729919e-02    1.0182033594e+05
    2.8974846005e-02    1.0182061719e+05
    2.8992949054e-02    1.0182215625e+05
    2.9011042789e-02    1.0182153906e+05
    2.9029129073e-02    1.0182441406e+05
    2.9047204182e-02    1.0182389844e+05
    2.9065268114e-02    1.0182325781e+05
    2.9083315283e-02    1.0182356250e+05
    2.9101338238e-02    1.0182258594e+05
    2.9119335115e-02    1.0182382031e+05
    2.9137304053e-02    1.0182285156e+05
    2.9155241325e-02    1.0182444531e+05
    2.9173148796e-02    1.0182518750e+05
    2.9191024601e-02    1.0182603125e+05
    2.9208874330e-02    1.0182799219e+05
    2.9226697981e-02    1.0183216406e+05
    2.9244501144e-02    1.0183533594e+05
    2.9262285680e-02    1.0184221875e+05
    2.9280053452e-02    1.0183281250e+05
    2.9297806323e-02    1.0183346094e+05
    2.9315544292e-02    1.0183412500e+05
    2.9333265498e-02    1.0183488281e+05
    2.9350971803e-02    1.0184042969e+05
    2.9368655756e-02    1.0184582031e+05
    2.9386319220e-02    1.0183988281e+05
    2.9403960332e-02    1.0183872656e+05
    2.9421577230e-02    1.0184214844e+05
    2.9439168051e-02    1.0184338281e+05
    2.9456734657e-02    1.0184458594e+05
    2.9474277049e-02    1.0184778906e+05
    2.9491795227e-02    1.0185121094e+05
    2.9509292915e-02    1.0184803125e+05
    2.9526771978e-02    1.0184685156e+05
    2.9544232413e-02    1.0185153906e+05
    2.9561674222e-02    1.0185641406e+05
    2.9579099268e-02    1.0185302344e+05
    2.9596509412e-02    1.0185422656e+05
    2.9613900930e-02    1.0185409375e+05
    2.9631273821e-02    1.0185380469e+05
    2.9648626223e-02    1.0185684375e+05
    2.9665958136e-02    1.0185757031e+05
    2.9683271423e-02    1.0185828906e+05
    2.9700560495e-02    1.0186122656e+05
    2.9717829078e-02    1.0186069531e+05
    2.9735075310e-02    1.0186006250e+05
    2.9752301052e-02    1.0185815625e+05
    2.9769508168e-02    1.0185175000e+05
    2.9786696658e-02    1.0185652344e+05
    2.9803866521e-02    1.0186164844e+05
    2.9821017757e-02    1.0186091406e+05
    2.9838152230e-02    1.0186012500e+05
    2.9855269939e-02    1.0186042969e+05
    2.9872370884e-02    1.0186184375e+05
    2.9889453202e-02    1.0185534375e+05
    2.9906518757e-02    1.0185907031e+05
    2.9923565686e-02    1.0186196875e+05
    2.9940593988e-02    1.0186484375e+05
    2.9957601801e-02    1.0186550781e+05
    2.9974590987e-02    1.0186846875e+05
    2.9991561547e-02    1.0186684375e+05
    3.0008511618e-02    1.0186974219e+05
    3.0025444925e-02    1.0186796094e+05
    3.0042361468e-02    1.0186605469e+05
    3.0059259385e-02    1.0186996094e+05
    3.0076142401e-02    1.0186918750e+05
    3.0093006790e-02    1.0186510156e+05
    3.0109854415e-02    1.0186784375e+05
    3.0126683414e-02    1.0187059375e+05
    3.0143497512e-02    1.0187114844e+05
    3.0160292983e-02    1.0186842969e+05
    3.0177071691e-02    1.0187003906e+05
    3.0193833634e-02    1.0187264844e+05
    3.0210576952e-02    1.0186824219e+05
    3.0227303505e-02    1.0186260156e+05
    3.0244011432e-02    1.0186149219e+05
    3.0260702595e-02    1.0186764844e+05
    3.0277376994e-02    1.0187266406e+05
    3.0294034630e-02    1.0187440625e+05
    3.0310675502e-02    1.0187375781e+05
    3.0327299610e-02    1.0187077344e+05
    3.0343905091e-02    1.0186406250e+05
    3.0360495672e-02    1.0187344531e+05
    3.0377071351e-02    1.0187141406e+05
    3.0393628404e-02    1.0187409375e+05
    3.0410168692e-02    1.0187228906e+05
    3.0426690355e-02    1.0187266406e+05
    3.0443195254e-02    1.0187533594e+05
    3.0459685251e-02    1.0187796875e+05
    3.0476156622e-02    1.0187614844e+05
    3.0492611229e-02    1.0187658594e+05
    3.0509050936e-02    1.0187836719e+05
    3.0525473878e-02    1.0187803906e+05
    3.0541881919e-02    1.0188589844e+05
    3.0558273196e-02    1.0188731250e+05
    3.0574647710e-02    1.0189128906e+05
    3.0591005459e-02    1.0189674219e+05
    3.0607348308e-02    1.0190021094e+05
    3.0623674393e-02    1.0190390625e+05
    3.0639985576e-02    1.0191482031e+05
    3.0656279996e-02    1.0192027344e+05
    3.0672557652e-02    1.0192358594e+05
    3.0688818544e-02    1.0192696094e+05
    3.0705062672e-02    1.0193037500e+05
    3.0721291900e-02    1.0193505469e+05
    3.0737506226e-02    1.0193982031e+05
    3.0753703788e-02    1.0194368750e+05
    3.0769886449e-02    1.0194885156e+05
    3.0786054209e-02    1.0196010156e+05
    3.0802207068e-02    1.0196342969e+05
    3.0818343163e-02    1.0196786719e+05
    3.0834466219e-02    1.0197003906e+05
    3.0850572512e-02    1.0197415625e+05
    3.0866663903e-02    1.0197683594e+05
    3.0882738531e-02    1.0197446875e+05
    3.0898798257e-02    1.0197764844e+05
    3.0914843082e-02    1.0197947656e+05
    3.0930871144e-02    1.0198125781e+05
    3.0946886167e-02    1.0198077344e+05
    3.0962884426e-02    1.0198463281e+05
    3.0978867784e-02    1.0198610156e+05
    3.0994836241e-02    1.0198499219e+05
    3.1010789797e-02    1.0198484375e+05
    3.1026728451e-02    1.0198231250e+05
    3.1042650342e-02    1.0198396094e+05
    3.1058559194e-02    1.0198064844e+05
    3.1074455008e-02    1.0197944531e+05
    3.1090334058e-02    1.0198147656e+05
    3.1106200069e-02    1.0197772656e+05
    3.1122051179e-02    1.0197697656e+05
    3.1137887388e-02    1.0197247656e+05
    3.1153710559e-02    1.0197475781e+05
    3.1169516966e-02    1.0197233594e+05
    3.1185310334e-02    1.0196744531e+05
    3.1201090664e-02    1.0196566406e+05
    3.1216854230e-02    1.0196386719e+05
    3.1232602894e-02    1.0196089844e+05
    3.1248336658e-02    1.0196227344e+05
    3.1264055520e-02    1.0195882031e+05
    3.1279761344e-02    1.0195031250e+05
    3.1295452267e-02    1.0194715625e+05
    3.1311132014e-02    1.0194357031e+05
    3.1326796860e-02    1.0193155469e+05
    3.1342446804e-02    1.0192837500e+05
    3.1358085573e-02    1.0192513281e+05
    3.1373709440e-02    1.0192071875e+05
    3.1389318407e-02    1.0191855469e+05
    3.1404916197e-02    1.0191517969e+05
    3.1420499086e-02    1.0190471094e+05
    3.1436067075e-02    1.0190225781e+05
    3.1451620162e-02    1.0189986719e+05
    3.1467158347e-02    1.0189633594e+05
    3.1482685357e-02    1.0189290625e+05
    3.1498193741e-02    1.0189440625e+05
    3.1513694674e-02    1.0189153906e+05
    3.1529176980e-02    1.0189357031e+05
    3.1544648111e-02    1.0189638281e+05
    3.1560108066e-02    1.0189714844e+05
    3.1575553119e-02    1.0190165625e+05
    3.1590986997e-02    1.0190193750e+05
    3.1606405973e-02    1.0190347656e+05
    3.1621813774e-02    1.0190289844e+05
    3.1637206674e-02    1.0190466406e+05
    3.1652588397e-02    1.0190935156e+05
    3.1667951494e-02    1.0191428125e+05
    3.1683307141e-02    1.0192011719e+05
    3.1698647887e-02    1.0193333594e+05
    3.1713977456e-02    1.0193558594e+05
    3.1729292125e-02    1.0193825000e+05
    3.1744595617e-02    1.0195039844e+05
    3.1759884208e-02    1.0195377344e+05
    3.1775161624e-02    1.0195992969e+05
    3.1790427864e-02    1.0197100000e+05
    3.1805675477e-02    1.0197585156e+05
    3.1820915639e-02    1.0199035156e+05
    3.1836140901e-02    1.0199619531e+05
    3.1851354986e-02    1.0201157031e+05
    3.1866557896e-02    1.0202022656e+05
    3.1881745905e-02    1.0202539844e+05
    3.1896922737e-02    1.0203053906e+05
    3.1912088394e-02    1.0203678125e+05
    3.1927239150e-02    1.0204309375e+05
    3.1942378730e-02    1.0204955469e+05
    3.1957507133e-02    1.0205616406e+05
    3.1972620636e-02    1.0206297656e+05
    3.1987726688e-02    1.0207789844e+05
    3.2002814114e-02    1.0208241406e+05
    3.2017890364e-02    1.0208353906e+05
    3.2032959163e-02    1.0208997656e+05
    3.2048013061e-02    1.0209603906e+05
    3.2063052058e-02    1.0209718750e+05
    3.2078083605e-02    1.0209534375e+05
    3.2093103975e-02    1.0210227344e+05
    3.2108109444e-02    1.0209614844e+05
    3.2123107463e-02    1.0210110156e+05
    3.2138090581e-02    1.0209986719e+05
    3.2153062522e-02    1.0209646094e+05
    3.2168023288e-02    1.0210185156e+05
    3.2182972878e-02    1.0210367969e+05
    3.2197911292e-02    1.0210764844e+05
    3.2212834805e-02    1.0210328125e+05
    3.2227750868e-02    1.0210343750e+05
    3.2242652029e-02    1.0210446875e+05
    3.2257542014e-02    1.0210763281e+05
    3.2272424549e-02    1.0210940625e+05
    3.2287292182e-02    1.0210396875e+05
    3.2302148640e-02    1.0210303125e+05
    3.2316997647e-02    1.0210403906e+05
    3.2331831753e-02    1.0210480469e+05
    3.2346658409e-02    1.0210064844e+05
    3.2361470163e-02    1.0209761719e+05
    3.2376270741e-02    1.0209892969e+05
    3.2391063869e-02    1.0209914844e+05
    3.2405842096e-02    1.0209822656e+05
    3.2420612872e-02    1.0209966406e+05
    3.2435368747e-02    1.0209875000e+05
    3.2450113446e-02    1.0209994531e+05
    3.2464850694e-02    1.0209496875e+05
    3.2479573041e-02    1.0209003906e+05
    3.2494287938e-02    1.0208938281e+05
    3.2508991659e-02    1.0208983594e+05
    3.2523684204e-02    1.0208785156e+05
    3.2538365573e-02    1.0208693750e+05
    3.2553035766e-02    1.0208587500e+05
    3.2567698509e-02    1.0208016406e+05
    3.2582346350e-02    1.0207680469e+05
    3.2596986741e-02    1.0207563281e+05
    3.2611619681e-02    1.0207228906e+05
    3.2626237720e-02    1.0207825000e+05
    3.2640848309e-02    1.0207487500e+05
    3.2655447721e-02    1.0207138281e+05
    3.2670035958e-02    1.0207025781e+05
    3.2684613019e-02    1.0206908594e+05
    3.2699178904e-02    1.0206796094e+05
    3.2713737339e-02    1.0206678906e+05
    3.2728284597e-02    1.0206337500e+05
    3.2742820680e-02    1.0206441406e+05
    3.2757349312e-02    1.0206303906e+05
    3.2771866769e-02    1.0205922656e+05
    3.2786373049e-02    1.0205747656e+05
    3.2800871879e-02    1.0205331250e+05
    3.2815355808e-02    1.0204885156e+05
    3.2829832286e-02    1.0204405469e+05
    3.2844301313e-02    1.0203913281e+05
    3.2858755440e-02    1.0203416406e+05
    3.2873202115e-02    1.0203153906e+05
    3.2887637615e-02    1.0203818750e+05
    3.2902065665e-02    1.0203467969e+05
    3.2916482538e-02    1.0203359375e+05
    3.2930891961e-02    1.0202903906e+05
    3.2945290208e-02    1.0202668750e+05
    3.2959677279e-02    1.0202202344e+05
    3.2974056900e-02    1.0201725781e+05
    3.2988425344e-02    1.0201471875e+05
    3.3002786338e-02    1.0201786719e+05
    3.3017136157e-02    1.0201437500e+05
    3.3031478524e-02    1.0201212500e+05
    3.3045809716e-02    1.0201109375e+05
    3.3060129732e-02    1.0201014844e+05
    3.3074442297e-02    1.0200709375e+05
    3.3088747412e-02    1.0200182031e+05
    3.3103041351e-02    1.0200481250e+05
    3.3117324114e-02    1.0200325781e+05
    3.3131599426e-02    1.0200400000e+05
    3.3145863563e-02    1.0200475000e+05
    3.3160120249e-02    1.0200086719e+05
    3.3174365759e-02    1.0199939844e+05
    3.3188603818e-02    1.0199566406e+05
    3.3202830702e-02    1.0199889844e+05
    3.3217050135e-02    1.0199635156e+05
    3.3231258392e-02    1.0199728906e+05
    3.3245459199e-02    1.0199733594e+05
    3.3259648830e-02    1.0199646094e+05
    3.3273831010e-02    1.0199825781e+05
    3.3288005739e-02    1.0200469531e+05
    3.3302169293e-02    1.0200450000e+05
    3.3316325396e-02    1.0200200000e+05
    3.3330474049e-02    1.0199938281e+05
    3.3344611526e-02    1.0199903906e+05
    3.3358741552e-02    1.0199644531e+05
    3.3372864127e-02    1.0199597656e+05
    3.3386975527e-02    1.0200490625e+05
    3.3401079476e-02    1.0200483594e+05
    3.3415172249e-02    1.0200496094e+05
    3.3429257572e-02    1.0200636719e+05
    3.3443335444e-02    1.0200797656e+05
    3.3457405865e-02    1.0200628906e+05
    3.3471468836e-02    1.0200916406e+05
    3.3485524356e-02    1.0200971875e+05
    3.3499568701e-02    1.0201028125e+05
    3.3513605595e-02    1.0201094531e+05
    3.3527631313e-02    1.0201167969e+05
    3.3541653305e-02    1.0201250781e+05
    3.3555664122e-02    1.0201342969e+05
    3.3569667488e-02    1.0201902344e+05
    3.3583663404e-02    1.0202260156e+05
    3.3597648144e-02    1.0202847656e+05
    3.3611625433e-02    1.0202287500e+05
    3.3625595272e-02    1.0201915625e+05
    3.3639557660e-02    1.0201996094e+05
    3.3653512597e-02    1.0202064844e+05
    3.3667460084e-02    1.0202122656e+05
    3.3681396395e-02    1.0202175000e+05
    3.3695328981e-02    1.0202212500e+05
    3.3709254116e-02    1.0202232031e+05
    3.3723168075e-02    1.0201550781e+05
    3.3737078309e-02    1.0201333594e+05
    3.3750977367e-02    1.0201342969e+05
    3.3764872700e-02    1.0202397656e+05
    3.3778760582e-02    1.0202319531e+05
    3.3792637289e-02    1.0202358594e+05
    3.3806510270e-02    1.0202625781e+05
    3.3820372075e-02    1.0202428906e+05
    3.3834230155e-02    1.0202446094e+05
    3.3848077059e-02    1.0201658594e+05
    3.3861916512e-02    1.0202469531e+05
    3.3875752240e-02    1.0202477344e+05
    3.3889576793e-02    1.0202366406e+05
    3.3903393894e-02    1.0201324219e+05
    3.3917203546e-02    1.0201527344e+05
    3.3931009471e-02    1.0201391406e+05
    3.3944804221e-02    1.0201258594e+05
    3.3958595246e-02    1.0201358594e+05
    3.3972378820e-02    1.0201346875e+05
    3.3986151218e-02    1.0201696094e+05
    3.3999919891e-02    1.0201446094e+05
    3.4013681114e-02    1.0201203125e+05
    3.4027434886e-02    1.0201409375e+05
    3.4041177481e-02    1.0201150000e+05
    3.4054916352e-02    1.0201107031e+05
    3.4068647772e-02    1.0201043750e+05
    3.4082375467e-02    1.0200946094e+05
    3.4096091986e-02    1.0200012500e+05
    3.4109804779e-02    1.0199739844e+05
    3.4123510122e-02    1.0199571094e+05
    3.4137208015e-02    1.0199406250e+05
    3.4150898457e-02    1.0199378125e+05
    3.4164581448e-02    1.0199147656e+05
    3.4178260714e-02    1.0200089844e+05
    3.4191932529e-02    1.0199916406e+05
    3.4205596894e-02    1.0199866406e+05
    3.4219253808e-02    1.0199805469e+05
    3.4232903272e-02    1.0199252344e+05
    3.4246545285e-02    1.0198683594e+05
    3.4260183573e-02    1.0198764844e+05
    3.4273810685e-02    1.0198608594e+05
    3.4287434071e-02    1.0198217969e+05
    3.4301050007e-02    1.0198285156e+05
    3.4314658493e-02    1.0197897656e+05
    3.4328263253e-02    1.0197864844e+05
    3.4341860563e-02    1.0197846094e+05
    3.4355450422e-02    1.0197502344e+05
    3.4369036555e-02    1.0198321875e+05
    3.4382611513e-02    1.0198471875e+05
    3.4396182746e-02    1.0197719531e+05
    3.4409742802e-02    1.0197386719e+05
    3.4423299134e-02    1.0197296094e+05
    3.4436848015e-02    1.0197194531e+05
    3.4450393170e-02    1.0197089844e+05
    3.4463927150e-02    1.0196977344e+05
    3.4477461129e-02    1.0196858594e+05
    3.4490987659e-02    1.0196733594e+05
    3.4504506737e-02    1.0196603906e+05
    3.4518022090e-02    1.0196471094e+05
    3.4531529993e-02    1.0196452344e+05
    3.4545030445e-02    1.0196303906e+05
    3.4558523446e-02    1.0196030469e+05
    3.4572008997e-02    1.0195752344e+05
    3.4585487098e-02    1.0195702344e+05
    3.4598957747e-02    1.0195084375e+05
    3.4612424672e-02    1.0194815625e+05
    3.4625884145e-02    1.0195003906e+05
    3.4639336169e-02    1.0195083594e+05
    3.4652780741e-02    1.0194714844e+05
    3.4666225314e-02    1.0194794531e+05
    3.4679658711e-02    1.0194403906e+05
    3.4693088382e-02    1.0194019531e+05
    3.4706510603e-02    1.0194319531e+05
    3.4719929099e-02    1.0193934375e+05
    3.4733340144e-02    1.0193896094e+05
    3.4746743739e-02    1.0193859375e+05
    3.4760143608e-02    1.0193494531e+05
    3.4773536026e-02    1.0193583594e+05
    3.4786924720e-02    1.0193216406e+05
    3.4800305963e-02    1.0193310156e+05
    3.4813679755e-02    1.0193055469e+05
    3.4827046096e-02    1.0192896094e+05
    3.4840408713e-02    1.0191815625e+05
    3.4853763878e-02    1.0191635156e+05
    3.4867111593e-02    1.0192385156e+05
    3.4880455583e-02    1.0192335156e+05
    3.4893795848e-02    1.0192172656e+05
    3.4907124937e-02    1.0191559375e+05
    3.4920454025e-02    1.0191836719e+05
    3.4933775663e-02    1.0191433594e+05
    3.4947093576e-02    1.0191268750e+05
    3.4960404038e-02    1.0191332031e+05
    3.4973710775e-02    1.0190256250e+05
    3.4987010062e-02    1.0190893750e+05
endcurve
