Curveplot
LS-DYNA keyword deck by LS-PrePost                          
Time
Pressure
Defined Connection
Pressure @ 98 #pts=1745
* Minval=     9.9929585938e+04 at time=         0.0175121762
* Maxval=     1.6371939062e+05 at time=         0.0083917892
    0.0000000000e+00    9.9998710938e+04
    3.3812357287e-05    9.9998710938e+04
    6.1326652940e-05    9.9998914062e+04
    8.9102875791e-05    9.9998929688e+04
    1.1682785407e-04    9.9996726562e+04
    1.4461828687e-04    9.9999195312e+04
    1.7236733402e-04    9.9999593750e+04
    2.0016246708e-04    1.0000009375e+05
    2.2795486439e-04    1.0000055469e+05
    2.5574557367e-04    1.0000100000e+05
    2.8353667585e-04    1.0000153125e+05
    3.1133697485e-04    1.0000206250e+05
    3.3912662184e-04    1.0000246094e+05
    3.6691734567e-04    1.0000235156e+05
    3.9470891352e-04    9.9992914062e+04
    4.2249175021e-04    9.9997117188e+04
    4.5027161832e-04    1.0000175781e+05
    4.7804549104e-04    1.0000433594e+05
    5.0581363030e-04    1.0000219531e+05
    5.3357944125e-04    1.0000203125e+05
    5.6134146871e-04    9.9997210938e+04
    5.8909942163e-04    9.9999117188e+04
    6.1685312539e-04    9.9997710938e+04
    6.4460188150e-04    1.0000092969e+05
    6.7234638846e-04    9.9999750000e+04
    7.0008635521e-04    1.0000089844e+05
    7.2782178177e-04    1.0000096094e+05
    7.5555208605e-04    1.0000115625e+05
    7.8327720985e-04    1.0000144531e+05
    8.1099680392e-04    1.0000147656e+05
    8.3871174138e-04    1.0000133594e+05
    8.6642213864e-04    1.0000122656e+05
    8.9412782108e-04    9.9996781250e+04
    9.2182843946e-04    1.0000094531e+05
    9.4952445943e-04    9.9995835938e+04
    9.7721535712e-04    9.9997750000e+04
    1.0049008997e-03    1.0000027344e+05
    1.0325826006e-03    1.0000089844e+05
    1.0602590628e-03    1.0000403906e+05
    1.0879321489e-03    1.0000357031e+05
    1.1155996472e-03    1.0000031250e+05
    1.1432634201e-03    9.9992945312e+04
    1.1709230021e-03    1.0000158594e+05
    1.1985785095e-03    1.0000171094e+05
    1.2262313394e-03    1.0000896875e+05
    1.2538790470e-03    1.0000238281e+05
    1.2815232622e-03    1.0000235156e+05
    1.3091630535e-03    9.9992468750e+04
    1.3368004002e-03    9.9997507812e+04
    1.3644339051e-03    1.0001015625e+05
    1.3920635683e-03    1.0002391406e+05
    1.4196902048e-03    1.0005308594e+05
    1.4473132323e-03    1.0010657031e+05
    1.4749332331e-03    1.0019680469e+05
    1.5025498578e-03    1.0032725000e+05
    1.5301633393e-03    1.0052310156e+05
    1.5577742597e-03    1.0077347656e+05
    1.5853822697e-03    1.0109731250e+05
    1.6129877185e-03    1.0146763281e+05
    1.6405890929e-03    1.0185863281e+05
    1.6681876732e-03    1.0224938281e+05
    1.6957829939e-03    1.0259749219e+05
    1.7233766848e-03    1.0286803125e+05
    1.7509678146e-03    1.0305097656e+05
    1.7785291420e-03    1.0314228906e+05
    1.8060547300e-03    1.0314065625e+05
    1.8335470231e-03    1.0305367969e+05
    1.8610082334e-03    1.0291211719e+05
    1.8884401070e-03    1.0274883594e+05
    1.9158447394e-03    1.0258227344e+05
    1.9432241097e-03    1.0242171094e+05
    1.9705800805e-03    1.0229142969e+05
    1.9979148638e-03    1.0221365625e+05
    2.0252298564e-03    1.0219171094e+05
    2.0525271539e-03    1.0221440625e+05
    2.0798076876e-03    1.0227368750e+05
    2.1070730872e-03    1.0234880469e+05
    2.1343247499e-03    1.0242197656e+05
    2.1615643054e-03    1.0248499219e+05
    2.1887931507e-03    1.0252536719e+05
    2.2160108201e-03    1.0254347656e+05
    2.2432196420e-03    1.0253246094e+05
    2.2704207804e-03    1.0251224219e+05
    2.2976147011e-03    1.0248367969e+05
    2.3248014040e-03    1.0244597656e+05
    2.3519827519e-03    1.0241386719e+05
    2.3791582789e-03    1.0239489844e+05
    2.4063293822e-03    1.0238403906e+05
    2.4334960617e-03    1.0238703906e+05
    2.4606597144e-03    1.0239156250e+05
    2.4878205732e-03    1.0240783594e+05
    2.5149781723e-03    1.0242971875e+05
    2.5421329774e-03    1.0244153906e+05
    2.5692859199e-03    1.0245057031e+05
    2.5964374654e-03    1.0245143750e+05
    2.6235871483e-03    1.0244219531e+05
    2.6507352013e-03    1.0243552344e+05
    2.6778825559e-03    1.0242577344e+05
    2.7050296776e-03    1.0242096094e+05
    2.7321761008e-03    1.0241592969e+05
    2.7593218256e-03    1.0240988281e+05
    2.7864677832e-03    1.0242268750e+05
    2.8136142064e-03    1.0242519531e+05
    2.8407603968e-03    1.0243513281e+05
    2.8679079842e-03    1.0244585156e+05
    2.8950548731e-03    1.0246261719e+05
    2.9222022276e-03    1.0248752344e+05
    2.9493502807e-03    1.0252419531e+05
    2.9764990322e-03    1.0257347656e+05
    3.0036487151e-03    1.0263631250e+05
    3.0307997949e-03    1.0271490625e+05
    3.0579508748e-03    1.0281303125e+05
    3.0851035845e-03    1.0292388281e+05
    3.1122572254e-03    1.0302538281e+05
    3.1394117977e-03    1.0311769531e+05
    3.1665677670e-03    1.0320138281e+05
    3.1937246677e-03    1.0326625000e+05
    3.2208829653e-03    1.0330133594e+05
    3.2480424270e-03    1.0331216406e+05
    3.2752046827e-03    1.0328802344e+05
    3.2952371985e-03    1.0325546094e+05
    3.3145032357e-03    1.0322614844e+05
    3.3336398192e-03    1.0318572656e+05
    3.3528339118e-03    1.0314566406e+05
    3.3720366191e-03    1.0309959375e+05
    3.3912549261e-03    1.0305497656e+05
    3.4104890656e-03    1.0301477344e+05
    3.4297339153e-03    1.0297008594e+05
    3.4486323129e-03    1.0292949219e+05
    3.4671388566e-03    1.0288746094e+05
    3.4854323603e-03    1.0283109375e+05
    3.5036695190e-03    1.0277066406e+05
    3.5219141282e-03    1.0270614844e+05
    3.5401545465e-03    1.0263752344e+05
    3.5583588760e-03    1.0256516406e+05
    3.5765271168e-03    1.0249899219e+05
    3.5946895368e-03    1.0243521094e+05
    3.6139658187e-03    1.0237696094e+05
    3.6330535077e-03    1.0232005469e+05
    3.6521453876e-03    1.0227969531e+05
    3.6699753255e-03    1.0224533594e+05
    3.6875614896e-03    1.0222271094e+05
    3.7050142419e-03    1.0220508594e+05
    3.7224807311e-03    1.0219028906e+05
    3.7400643341e-03    1.0217822656e+05
    3.7577797193e-03    1.0216864844e+05
    3.7755726371e-03    1.0216107031e+05
    3.7933769636e-03    1.0215503125e+05
    3.8111612666e-03    1.0214127344e+05
    3.8289318327e-03    1.0213096875e+05
    3.8467168342e-03    1.0212421094e+05
    3.8645383902e-03    1.0211632031e+05
    3.8824023213e-03    1.0210960156e+05
    3.9002960548e-03    1.0210397656e+05
    3.9182156324e-03    1.0209214844e+05
    3.9361710660e-03    1.0207809375e+05
    3.9541716687e-03    1.0205914844e+05
    3.9733103476e-03    1.0203272656e+05
    3.9924201556e-03    1.0201025781e+05
    4.0104058571e-03    1.0199485156e+05
    4.0284004062e-03    1.0198493750e+05
    4.0464363992e-03    1.0198087500e+05
    4.0656095371e-03    1.0197816406e+05
    4.0847789496e-03    1.0197433594e+05
    4.1039343923e-03    1.0196425781e+05
    4.1219722480e-03    1.0195666406e+05
    4.1400394402e-03    1.0194697656e+05
    4.1591953486e-03    1.0193508594e+05
    4.1784178466e-03    1.0192335156e+05
    4.1976389475e-03    1.0192139844e+05
    4.2168586515e-03    1.0191553906e+05
    4.2360713705e-03    1.0190999219e+05
    4.2552771047e-03    1.0190210156e+05
    4.2744791135e-03    1.0189166406e+05
    4.2936825193e-03    1.0187846094e+05
    4.3128933758e-03    1.0186667969e+05
    4.3321144767e-03    1.0185616406e+05
    4.3513495475e-03    1.0183964844e+05
    4.3705995195e-03    1.0182144531e+05
    4.3898657896e-03    1.0179647656e+05
    4.4091497548e-03    1.0177577344e+05
    4.4284537435e-03    1.0174968750e+05
    4.4477786869e-03    1.0171743750e+05
    4.4671236537e-03    1.0167796094e+05
    4.4864914380e-03    1.0163015625e+05
    4.5058806427e-03    1.0156658594e+05
    4.5252908021e-03    1.0148418750e+05
    4.5447219163e-03    1.0140524219e+05
    4.5641721226e-03    1.0131058594e+05
    4.5836409554e-03    1.0121530469e+05
    4.6031279489e-03    1.0110171875e+05
    4.6226321720e-03    1.0098450781e+05
    4.6421540901e-03    1.0086641406e+05
    4.6616927721e-03    1.0074581250e+05
    4.6812482178e-03    1.0062441406e+05
    4.7008208930e-03    1.0050689844e+05
    4.7204112634e-03    1.0039244531e+05
    4.7400193289e-03    1.0029953906e+05
    4.7596455552e-03    1.0023056250e+05
    4.7792894766e-03    1.0018080469e+05
    4.7989510931e-03    1.0014841406e+05
    4.8186304048e-03    1.0014391406e+05
    4.8383255489e-03    1.0015378906e+05
    4.8580355942e-03    1.0019075781e+05
    4.8777610064e-03    1.0023316406e+05
    4.8975008540e-03    1.0028734375e+05
    4.9172551371e-03    1.0034905469e+05
    4.9370229244e-03    1.0041150000e+05
    4.9568060786e-03    1.0046663281e+05
    4.9766036682e-03    1.0052728906e+05
    4.9964170903e-03    1.0057260156e+05
    5.0162458792e-03    1.0061342969e+05
    5.0360900350e-03    1.0065081250e+05
    5.0559476949e-03    1.0066782031e+05
    5.0758207217e-03    1.0067767969e+05
    5.0957072526e-03    1.0068031250e+05
    5.1156077534e-03    1.0067632031e+05
    5.1355226897e-03    1.0066640625e+05
    5.1554525271e-03    1.0065153906e+05
    5.1753963344e-03    1.0063036719e+05
    5.1953555085e-03    1.0061183594e+05
    5.2153295837e-03    1.0059672656e+05
    5.2353194915e-03    1.0058171094e+05
    5.2553247660e-03    1.0057632031e+05
    5.2753463387e-03    1.0057302344e+05
    5.2953832783e-03    1.0057415625e+05
    5.3154369816e-03    1.0057982031e+05
    5.3355065174e-03    1.0058730469e+05
    5.3555918857e-03    1.0059399219e+05
    5.3756926209e-03    1.0059957031e+05
    5.3958082572e-03    1.0061269531e+05
    5.4159392603e-03    1.0062411719e+05
    5.4360851645e-03    1.0063782031e+05
    5.4562464356e-03    1.0064892969e+05
    5.4764230736e-03    1.0065935156e+05
    5.4966160096e-03    1.0066328125e+05
    5.5168238468e-03    1.0066847656e+05
    5.5370470509e-03    1.0067185156e+05
    5.5572865531e-03    1.0066540625e+05
    5.5775423534e-03    1.0066972656e+05
    5.5978130549e-03    1.0067164844e+05
    5.6181000546e-03    1.0067124219e+05
    5.6384028867e-03    1.0067310156e+05
    5.6587206200e-03    1.0067508594e+05
    5.6790532544e-03    1.0067728906e+05
    5.6994007900e-03    1.0067868750e+05
    5.7197632268e-03    1.0068478125e+05
    5.7401410304e-03    1.0068432031e+05
    5.7605337352e-03    1.0068750781e+05
    5.7809422724e-03    1.0068982031e+05
    5.8013652451e-03    1.0069553125e+05
    5.8218040504e-03    1.0070141406e+05
    5.8422577567e-03    1.0070308594e+05
    5.8627268299e-03    1.0071400000e+05
    5.8832112700e-03    1.0071813281e+05
    5.9037101455e-03    1.0071663281e+05
    5.9242248535e-03    1.0072427344e+05
    5.9447535314e-03    1.0073311719e+05
    5.9641525149e-03    1.0073542969e+05
    5.9830932878e-03    1.0073980469e+05
    6.0020405799e-03    1.0074872656e+05
    6.0210367665e-03    1.0075780469e+05
    6.0400799848e-03    1.0076478906e+05
    6.0591096990e-03    1.0076971094e+05
    6.0781282373e-03    1.0077457031e+05
    6.0972142965e-03    1.0077590625e+05
    6.1162756756e-03    1.0078171094e+05
    6.1353649944e-03    1.0078863281e+05
    6.1544459313e-03    1.0079361719e+05
    6.1734300107e-03    1.0080808594e+05
    6.1924448237e-03    1.0081364844e+05
    6.2115197070e-03    1.0082627344e+05
    6.2306127511e-03    1.0083214844e+05
    6.2497169711e-03    1.0084046094e+05
    6.2688281760e-03    1.0084706250e+05
    6.2879407778e-03    1.0086339844e+05
    6.3070552424e-03    1.0088053906e+05
    6.3261794858e-03    1.0088939844e+05
    6.3453060575e-03    1.0090800781e+05
    6.3644465990e-03    1.0092749219e+05
    6.3835908659e-03    1.0094764844e+05
    6.4027444459e-03    1.0096855469e+05
    6.4219115302e-03    1.0098114844e+05
    6.4410855994e-03    1.0100353906e+05
    6.4602680504e-03    1.0102182031e+05
    6.4794607460e-03    1.0103316406e+05
    6.4986641519e-03    1.0104175000e+05
    6.5178787336e-03    1.0105205469e+05
    6.5371058881e-03    1.0105714844e+05
    6.5563363023e-03    1.0106152344e+05
    6.5755699761e-03    1.0107211719e+05
    6.5948092379e-03    1.0107402344e+05
    6.6140629351e-03    1.0107274219e+05
    6.6333152354e-03    1.0106916406e+05
    6.6525745206e-03    1.0106792969e+05
    6.6718445159e-03    1.0106562500e+05
    6.6911154427e-03    1.0107062500e+05
    6.7104012705e-03    1.0106821875e+05
    6.7296870984e-03    1.0107222656e+05
    6.7489854991e-03    1.0107147656e+05
    6.7682852969e-03    1.0107721094e+05
    6.7875892855e-03    1.0107108594e+05
    6.8069072440e-03    1.0107358594e+05
    6.8262196146e-03    1.0106644531e+05
    6.8455408327e-03    1.0107031250e+05
    6.8648783490e-03    1.0106727344e+05
    6.8842126057e-03    1.0106649219e+05
    6.9035501219e-03    1.0107278906e+05
    6.9228983484e-03    1.0107711719e+05
    6.9422605447e-03    1.0108165625e+05
    6.9616222754e-03    1.0108761719e+05
    6.9809844717e-03    1.0109162500e+05
    7.0003494620e-03    1.0109957031e+05
    7.0197195746e-03    1.0111042969e+05
    7.0390999317e-03    1.0112675000e+05
    7.0584909990e-03    1.0114190625e+05
    7.0778946392e-03    1.0116758594e+05
    7.0973108523e-03    1.0118813281e+05
    7.1167377755e-03    1.0121506250e+05
    7.1361698210e-03    1.0124860156e+05
    7.1556069888e-03    1.0128441406e+05
    7.1750483476e-03    1.0132272656e+05
    7.1944966912e-03    1.0137062500e+05
    7.2139529511e-03    1.0141908594e+05
    7.2334166616e-03    1.0147253906e+05
    7.2528840974e-03    1.0152280469e+05
    7.2723543271e-03    1.0157303906e+05
    7.2918278165e-03    1.0162637500e+05
    7.3113050312e-03    1.0167671094e+05
    7.3307845742e-03    1.0171441406e+05
    7.3502692394e-03    1.0175846875e+05
    7.3697618209e-03    1.0179697656e+05
    7.3892641813e-03    1.0182263281e+05
    7.4087800458e-03    1.0184614844e+05
    7.4282912537e-03    1.0186128906e+05
    7.4477996677e-03    1.0186780469e+05
    7.4673094787e-03    1.0186421094e+05
    7.4868267402e-03    1.0185608594e+05
    7.5063589029e-03    1.0184085156e+05
    7.5258887373e-03    1.0181414844e+05
    7.5454111211e-03    1.0178359375e+05
    7.5649353676e-03    1.0174574219e+05
    7.5844703242e-03    1.0169950781e+05
    7.6040057465e-03    1.0165658594e+05
    7.6235276647e-03    1.0160797656e+05
    7.6430505142e-03    1.0156671094e+05
    7.6625877991e-03    1.0152507031e+05
    7.6821087860e-03    1.0149130469e+05
    7.7016241848e-03    1.0145728906e+05
    7.7211544849e-03    1.0143219531e+05
    7.7406810597e-03    1.0141460156e+05
    7.7602043748e-03    1.0140403906e+05
    7.7797495760e-03    1.0139802344e+05
    7.7992938459e-03    1.0139631250e+05
    7.8188432381e-03    1.0139841406e+05
    7.8384252265e-03    1.0140291406e+05
    7.8580006957e-03    1.0140716406e+05
    7.8775910661e-03    1.0141436719e+05
    7.8972103074e-03    1.0141289844e+05
    7.9168286175e-03    1.0141091406e+05
    7.9364804551e-03    1.0140746875e+05
    7.9561360180e-03    1.0139368750e+05
    7.9758102074e-03    1.0138046875e+05
    7.9955114052e-03    1.0136978906e+05
    8.0152126029e-03    1.0135360156e+05
    8.0349491909e-03    1.0134192969e+05
    8.0546662211e-03    1.0133402344e+05
    8.0743944272e-03    1.0133397656e+05
    8.0941170454e-03    1.0135932031e+05
    8.1138620153e-03    1.0142949219e+05
    8.1336386502e-03    1.0158090625e+05
    8.1534720957e-03    1.0189285156e+05
    8.1733558327e-03    1.0250672656e+05
    8.1932730973e-03    1.0367377344e+05
    8.2132071257e-03    1.0579002344e+05
    8.2330890000e-03    1.0936957031e+05
    8.2529615611e-03    1.1490834375e+05
    8.2727763802e-03    1.2264696875e+05
    8.2926023751e-03    1.3219037500e+05
    8.3124246448e-03    1.4244745312e+05
    8.3322748542e-03    1.5179101562e+05
    8.3521194756e-03    1.5877426562e+05
    8.3719678223e-03    1.6268759375e+05
    8.3917891607e-03    1.6371939062e+05
    8.4116021171e-03    1.6272720312e+05
    8.4314141423e-03    1.6066256250e+05
    8.4512168542e-03    1.5841062500e+05
    8.4710381925e-03    1.5648164062e+05
    8.4908353165e-03    1.5503112500e+05
    8.5106678307e-03    1.5396489062e+05
    8.5304882377e-03    1.5307551562e+05
    8.5503393784e-03    1.5213485938e+05
    8.5699046031e-03    1.5098825000e+05
    8.5892248899e-03    1.4960337500e+05
    8.6083402857e-03    1.4800540625e+05
    8.6272666231e-03    1.4630829688e+05
    8.6460309103e-03    1.4460460938e+05
    8.6646731943e-03    1.4297462500e+05
    8.6832325906e-03    1.4146400000e+05
    8.7017398328e-03    1.4009043750e+05
    8.7202098221e-03    1.3883678125e+05
    8.7386453524e-03    1.3767446875e+05
    8.7570473552e-03    1.3657612500e+05
    8.7753897533e-03    1.3552954688e+05
    8.7936492637e-03    1.3451759375e+05
    8.8118780404e-03    1.3352682812e+05
    8.8300397620e-03    1.3256626562e+05
    8.8481390849e-03    1.3164278125e+05
    8.8662039489e-03    1.3076069531e+05
    8.8842641562e-03    1.2993715625e+05
    8.9023411274e-03    1.2916835156e+05
    8.9204348624e-03    1.2846005469e+05
    8.9385388419e-03    1.2781047656e+05
    8.9566456154e-03    1.2720849219e+05
    8.9747514576e-03    1.2663661719e+05
    8.9928600937e-03    1.2608519531e+05
    9.0109808370e-03    1.2555356250e+05
    9.0291155502e-03    1.2502435156e+05
    9.0472688898e-03    1.2450771875e+05
    9.0654399246e-03    1.2400591406e+05
    9.0836230665e-03    1.2350939844e+05
    9.1018192470e-03    1.2302466406e+05
    9.1200266033e-03    1.2255874219e+05
    9.1382460669e-03    1.2211262500e+05
    9.1564757749e-03    1.2168069531e+05
    9.1747231781e-03    1.2126834375e+05
    9.1929892078e-03    1.2087506250e+05
    9.2112747952e-03    1.2049485156e+05
    9.2295790091e-03    1.2012933594e+05
    9.2479009181e-03    1.1977285156e+05
    9.2662386596e-03    1.1943078906e+05
    9.2845931649e-03    1.1909871094e+05
    9.3029672280e-03    1.1878155469e+05
    9.3213599175e-03    1.1847700781e+05
    9.3397712335e-03    1.1819808594e+05
    9.3582011759e-03    1.1793464844e+05
    9.3766497448e-03    1.1768797656e+05
    9.3951150775e-03    1.1745096094e+05
    9.4135999680e-03    1.1723277344e+05
    9.4321016222e-03    1.1702011719e+05
    9.4506228343e-03    1.1681078906e+05
    9.4691645354e-03    1.1660656250e+05
    9.4877239317e-03    1.1639935156e+05
    9.5063010231e-03    1.1620335156e+05
    9.5248948783e-03    1.1601225000e+05
    9.5435054973e-03    1.1582277344e+05
    9.5621328801e-03    1.1563903906e+05
    9.5807760954e-03    1.1545987500e+05
    9.5994332805e-03    1.1529328906e+05
    9.6181081608e-03    1.1513997656e+05
    9.6367979422e-03    1.1499750781e+05
    9.6555035561e-03    1.1486419531e+05
    9.6742231399e-03    1.1474003125e+05
    9.6929576248e-03    1.1462025781e+05
    9.7117051482e-03    1.1450746094e+05
    9.7304685041e-03    1.1440008594e+05
    9.7492448986e-03    1.1428750000e+05
    9.7680361941e-03    1.1417605469e+05
    9.7868405282e-03    1.1406571094e+05
    9.8056588322e-03    1.1394803125e+05
    9.8244920373e-03    1.1383156250e+05
    9.8433364183e-03    1.1371646094e+05
    9.8621929064e-03    1.1359703125e+05
    9.8810633644e-03    1.1347627344e+05
    9.8999459296e-03    1.1336460156e+05
    9.9188406020e-03    1.1325399219e+05
    9.9377483130e-03    1.1314647656e+05
    9.9566690624e-03    1.1303350781e+05
    9.9756028503e-03    1.1292533594e+05
    9.9945487455e-03    1.1281255469e+05
    1.0013507679e-02    1.1270149219e+05
    1.0032479651e-02    1.1258260156e+05
    1.0051463731e-02    1.1246905469e+05
    1.0070459917e-02    1.1234650781e+05
    1.0089469142e-02    1.1223327344e+05
    1.0108492337e-02    1.1211678906e+05
    1.0127528571e-02    1.1199405469e+05
    1.0146577843e-02    1.1187764844e+05
    1.0165639222e-02    1.1175883594e+05
    1.0184712708e-02    1.1165050000e+05
    1.0203798302e-02    1.1154289844e+05
    1.0222896002e-02    1.1144621094e+05
    1.0242006741e-02    1.1135656250e+05
    1.0261129588e-02    1.1127683594e+05
    1.0280264542e-02    1.1120183594e+05
    1.0299413465e-02    1.1114475000e+05
    1.0318575427e-02    1.1109240625e+05
    1.0337748565e-02    1.1105880469e+05
    1.0356934741e-02    1.1102347656e+05
    1.0376133956e-02    1.1100028906e+05
    1.0395346209e-02    1.1097808594e+05
    1.0414571501e-02    1.1095419531e+05
    1.0433809832e-02    1.1093088281e+05
    1.0453061201e-02    1.1090247656e+05
    1.0472324677e-02    1.1087187500e+05
    1.0491601191e-02    1.1084355469e+05
    1.0510892607e-02    1.1080957031e+05
    1.0530196130e-02    1.1076277344e+05
    1.0549513623e-02    1.1071825781e+05
    1.0568842292e-02    1.1065727344e+05
    1.0588183999e-02    1.1059390625e+05
    1.0607538745e-02    1.1053150000e+05
    1.0626907460e-02    1.1045735156e+05
    1.0646289214e-02    1.1038594531e+05
    1.0665684007e-02    1.1032240625e+05
    1.0685092770e-02    1.1025618750e+05
    1.0704516433e-02    1.1020303125e+05
    1.0723951273e-02    1.1015468750e+05
    1.0743400082e-02    1.1010891406e+05
    1.0762862861e-02    1.1006487500e+05
    1.0782338679e-02    1.1002309375e+05
    1.0801829398e-02    1.0998191406e+05
    1.0821334086e-02    1.0994199219e+05
    1.0840852745e-02    1.0990178125e+05
    1.0860386305e-02    1.0986414844e+05
    1.0879932903e-02    1.0983100000e+05
    1.0899493471e-02    1.0978903125e+05
    1.0919069871e-02    1.0974114844e+05
    1.0938662104e-02    1.0969493750e+05
    1.0958270170e-02    1.0964216406e+05
    1.0977892205e-02    1.0958940625e+05
    1.0997531936e-02    1.0953836719e+05
    1.1017187499e-02    1.0948946094e+05
    1.1036860757e-02    1.0944653125e+05
    1.1056551710e-02    1.0939456250e+05
    1.1076259427e-02    1.0934581250e+05
    1.1095987633e-02    1.0928903906e+05
    1.1115733534e-02    1.0923597656e+05
    1.1135498993e-02    1.0917939844e+05
    1.1155283079e-02    1.0912253906e+05
    1.1175086722e-02    1.0907328906e+05
    1.1194912717e-02    1.0902012500e+05
    1.1214758269e-02    1.0896377344e+05
    1.1234625243e-02    1.0890315625e+05
    1.1254511774e-02    1.0883871094e+05
    1.1274418794e-02    1.0877542969e+05
    1.1294347234e-02    1.0871119531e+05
    1.1314296164e-02    1.0864719531e+05
    1.1334266514e-02    1.0858240625e+05
    1.1354257353e-02    1.0851610156e+05
    1.1374268681e-02    1.0844943750e+05
    1.1394302361e-02    1.0837917969e+05
    1.1414355598e-02    1.0830447656e+05
    1.1434430256e-02    1.0823060156e+05
    1.1454525404e-02    1.0814753906e+05
    1.1474640109e-02    1.0806285156e+05
    1.1494777165e-02    1.0797502344e+05
    1.1514934711e-02    1.0788865625e+05
    1.1535113677e-02    1.0780563281e+05
    1.1555313133e-02    1.0772496875e+05
    1.1575534008e-02    1.0765241406e+05
    1.1595774442e-02    1.0757786719e+05
    1.1616035365e-02    1.0750735156e+05
    1.1636316776e-02    1.0744489844e+05
    1.1656619608e-02    1.0738253906e+05
    1.1676942930e-02    1.0732814844e+05
    1.1697287671e-02    1.0727989844e+05
    1.1717652902e-02    1.0723450781e+05
    1.1738038622e-02    1.0719146094e+05
    1.1758443899e-02    1.0714908594e+05
    1.1778870597e-02    1.0710946094e+05
    1.1799318716e-02    1.0706977344e+05
    1.1819788255e-02    1.0701722656e+05
    1.1840280145e-02    1.0696115625e+05
    1.1860790662e-02    1.0690630469e+05
    1.1881321669e-02    1.0685030469e+05
    1.1901874095e-02    1.0678975781e+05
    1.1922447011e-02    1.0673222656e+05
    1.1943042278e-02    1.0667288281e+05
    1.1963658035e-02    1.0660850000e+05
    1.1984295212e-02    1.0654802344e+05
    1.2004952878e-02    1.0649158594e+05
    1.2025631964e-02    1.0643913281e+05
    1.2046331540e-02    1.0639667969e+05
    1.2067052536e-02    1.0635952344e+05
    1.2087795883e-02    1.0632366406e+05
    1.2108558789e-02    1.0629125000e+05
    1.2129344046e-02    1.0626596875e+05
    1.2150149792e-02    1.0623009375e+05
    1.2170976959e-02    1.0620316406e+05
    1.2191825546e-02    1.0616533594e+05
    1.2212695554e-02    1.0613346094e+05
    1.2233586982e-02    1.0609575781e+05
    1.2254500762e-02    1.0605708594e+05
    1.2275436893e-02    1.0601961719e+05
    1.2296394445e-02    1.0596836719e+05
    1.2317374349e-02    1.0591565625e+05
    1.2338375673e-02    1.0585616406e+05
    1.2359398417e-02    1.0579034375e+05
    1.2380442582e-02    1.0572527344e+05
    1.2401508167e-02    1.0565859375e+05
    1.2422595173e-02    1.0558364844e+05
    1.2443703599e-02    1.0549619531e+05
    1.2464834377e-02    1.0541222656e+05
    1.2485986575e-02    1.0530988281e+05
    1.2507158332e-02    1.0521511719e+05
    1.2528351508e-02    1.0512697656e+05
    1.2549565174e-02    1.0503293750e+05
    1.2570801191e-02    1.0495418750e+05
    1.2592058629e-02    1.0488014844e+05
    1.2613337487e-02    1.0480517969e+05
    1.2634636834e-02    1.0474032031e+05
    1.2655957602e-02    1.0468312500e+05
    1.2677297927e-02    1.0464085156e+05
    1.2698660605e-02    1.0459977344e+05
    1.2720043771e-02    1.0457674219e+05
    1.2741449289e-02    1.0455239844e+05
    1.2762876227e-02    1.0453671875e+05
    1.2784325518e-02    1.0451216406e+05
    1.2805794366e-02    1.0448396094e+05
    1.2827285565e-02    1.0445292969e+05
    1.2848797254e-02    1.0442503125e+05
    1.2870330364e-02    1.0437781250e+05
    1.2891885825e-02    1.0433002344e+05
    1.2913462706e-02    1.0427422656e+05
    1.2935061008e-02    1.0421497656e+05
    1.2956679799e-02    1.0415016406e+05
    1.2978320010e-02    1.0409284375e+05
    1.2999981642e-02    1.0404225781e+05
    1.3021663763e-02    1.0399627344e+05
    1.3043368235e-02    1.0396096094e+05
    1.3065092266e-02    1.0392905469e+05
    1.3086837716e-02    1.0390746094e+05
    1.3108605519e-02    1.0388508594e+05
    1.3130392879e-02    1.0386955469e+05
    1.3152201660e-02    1.0385991406e+05
    1.3174032792e-02    1.0383797656e+05
    1.3195885345e-02    1.0381161719e+05
    1.3217759319e-02    1.0379149219e+05
    1.3239653781e-02    1.0376508594e+05
    1.3261569664e-02    1.0373646875e+05
    1.3283506967e-02    1.0371039844e+05
    1.3305463828e-02    1.0368228906e+05
    1.3327440247e-02    1.0365922656e+05
    1.3349435292e-02    1.0361963281e+05
    1.3371448033e-02    1.0359150000e+05
    1.3393475674e-02    1.0356191406e+05
    1.3415516354e-02    1.0352128906e+05
    1.3437564485e-02    1.0348667969e+05
    1.3459613547e-02    1.0344342969e+05
    1.3481658883e-02    1.0341000000e+05
    1.3503690250e-02    1.0336703125e+05
    1.3525702059e-02    1.0333593750e+05
    1.3547683135e-02    1.0331624219e+05
    1.3569628820e-02    1.0329818750e+05
    1.3591531664e-02    1.0329343750e+05
    1.3613392599e-02    1.0330321875e+05
    1.3635210693e-02    1.0334627344e+05
    1.3656994328e-02    1.0343532031e+05
    1.3678749092e-02    1.0358253125e+05
    1.3700488023e-02    1.0379389844e+05
    1.3722228818e-02    1.0408783594e+05
    1.3743981719e-02    1.0448385156e+05
    1.3765762560e-02    1.0498396094e+05
    1.3787578791e-02    1.0561263281e+05
    1.3809437864e-02    1.0636227344e+05
    1.3831341639e-02    1.0721980469e+05
    1.3853288256e-02    1.0814850781e+05
    1.3875273056e-02    1.0910421094e+05
    1.3897285797e-02    1.1001374219e+05
    1.3919321820e-02    1.1081082031e+05
    1.3941374607e-02    1.1144237500e+05
    1.3963440433e-02    1.1186207031e+05
    1.3985517435e-02    1.1203716406e+05
    1.4007603750e-02    1.1197952344e+05
    1.4029704034e-02    1.1171160156e+05
    1.4051820152e-02    1.1125560156e+05
    1.4073957689e-02    1.1066353906e+05
    1.4096121304e-02    1.0997818750e+05
    1.4118315652e-02    1.0925500781e+05
    1.4140545391e-02    1.0855734375e+05
    1.4162814245e-02    1.0792117969e+05
    1.4185124077e-02    1.0737716406e+05
    1.4207473956e-02    1.0693974219e+05
    1.4229862019e-02    1.0659192969e+05
    1.4252286404e-02    1.0632778906e+05
    1.4274741523e-02    1.0610453125e+05
    1.4297228307e-02    1.0588403906e+05
    1.4319745824e-02    1.0563062500e+05
    1.4342290349e-02    1.0532428125e+05
    1.4364863746e-02    1.0495821875e+05
    1.4387467876e-02    1.0452728906e+05
    1.4410103671e-02    1.0405524219e+05
    1.4432771131e-02    1.0356008594e+05
    1.4455472119e-02    1.0306282031e+05
    1.4478209428e-02    1.0259185156e+05
    1.4500979334e-02    1.0217133594e+05
    1.4523783699e-02    1.0182178906e+05
    1.4546621591e-02    1.0154783594e+05
    1.4569494873e-02    1.0135141406e+05
    1.4592399821e-02    1.0122152344e+05
    1.4615339227e-02    1.0116128906e+05
    1.4638305642e-02    1.0115215625e+05
    1.4661304653e-02    1.0118118750e+05
    1.4684336260e-02    1.0123214844e+05
    1.4707398601e-02    1.0129200781e+05
    1.4730494469e-02    1.0135466406e+05
    1.4753622934e-02    1.0140441406e+05
    1.4776783995e-02    1.0144210156e+05
    1.4799979515e-02    1.0145821875e+05
    1.4823205769e-02    1.0145135156e+05
    1.4846466482e-02    1.0142594531e+05
    1.4869757928e-02    1.0137815625e+05
    1.4893081971e-02    1.0132716406e+05
    1.4916437678e-02    1.0127425000e+05
    1.4939822257e-02    1.0123388281e+05
    1.4963239431e-02    1.0120571094e+05
    1.4986685477e-02    1.0119466406e+05
    1.5010161325e-02    1.0119184375e+05
    1.5033668838e-02    1.0120414844e+05
    1.5057205223e-02    1.0123447656e+05
    1.5080772340e-02    1.0127366406e+05
    1.5104367398e-02    1.0132764844e+05
    1.5127992257e-02    1.0139102344e+05
    1.5151646920e-02    1.0146919531e+05
    1.5175330453e-02    1.0154446094e+05
    1.5199041925e-02    1.0162375000e+05
    1.5222782269e-02    1.0169767969e+05
    1.5246548690e-02    1.0176128906e+05
    1.5270343982e-02    1.0181066406e+05
    1.5294168144e-02    1.0184213281e+05
    1.5318016522e-02    1.0186200781e+05
    1.5341891907e-02    1.0187777344e+05
    1.5365792438e-02    1.0188321094e+05
    1.5389721841e-02    1.0188556250e+05
    1.5413676389e-02    1.0189824219e+05
    1.5437657945e-02    1.0191666406e+05
    1.5461664647e-02    1.0194458594e+05
    1.5485695563e-02    1.0197335156e+05
    1.5509752557e-02    1.0200372656e+05
    1.5533835627e-02    1.0202714844e+05
    1.5557944775e-02    1.0204763281e+05
    1.5582079068e-02    1.0206664844e+05
    1.5606240369e-02    1.0207057031e+05
    1.5630424023e-02    1.0205514844e+05
    1.5654634684e-02    1.0203615625e+05
    1.5678871423e-02    1.0201517969e+05
    1.5703132376e-02    1.0199853906e+05
    1.5727419406e-02    1.0198293750e+05
    1.5751728788e-02    1.0196807031e+05
    1.5776060522e-02    1.0195675000e+05
    1.5800418332e-02    1.0195439844e+05
    1.5824800357e-02    1.0195053906e+05
    1.5849204734e-02    1.0194640625e+05
    1.5873633325e-02    1.0195022656e+05
    1.5898084268e-02    1.0194778906e+05
    1.5922557563e-02    1.0194374219e+05
    1.5947058797e-02    1.0192771094e+05
    1.5971582383e-02    1.0190972656e+05
    1.5996130183e-02    1.0188200781e+05
    1.6020702198e-02    1.0185203125e+05
    1.6045298427e-02    1.0181314844e+05
    1.6069920734e-02    1.0176749219e+05
    1.6094569117e-02    1.0171684375e+05
    1.6119243577e-02    1.0166353125e+05
    1.6143942252e-02    1.0159519531e+05
    1.6168667004e-02    1.0152509375e+05
    1.6193419695e-02    1.0144421094e+05
    1.6218200326e-02    1.0135977344e+05
    1.6243007034e-02    1.0127103906e+05
    1.6267839819e-02    1.0118022656e+05
    1.6292702407e-02    1.0108491406e+05
    1.6317596659e-02    1.0098372656e+05
    1.6342513263e-02    1.0088852344e+05
    1.6367461532e-02    1.0079685156e+05
    1.6392435879e-02    1.0070772656e+05
    1.6417443752e-02    1.0061228906e+05
    1.6442479566e-02    1.0052913281e+05
    1.6467543319e-02    1.0044631250e+05
    1.6492636874e-02    1.0038711719e+05
    1.6517756507e-02    1.0033121094e+05
    1.6542907804e-02    1.0028809375e+05
    1.6568088904e-02    1.0025828906e+05
    1.6593271866e-02    1.0024552344e+05
    1.6618426889e-02    1.0025471094e+05
    1.6643559560e-02    1.0028032031e+05
    1.6668669879e-02    1.0031777344e+05
    1.6693757847e-02    1.0036333594e+05
    1.6718825325e-02    1.0041710156e+05
    1.6743874177e-02    1.0046893750e+05
    1.6768900678e-02    1.0051597656e+05
    1.6793908551e-02    1.0056112500e+05
    1.6818899661e-02    1.0060292969e+05
    1.6843874007e-02    1.0063334375e+05
    1.6868829727e-02    1.0064875781e+05
    1.6893770546e-02    1.0064881250e+05
    1.6918692738e-02    1.0064938281e+05
    1.6943598166e-02    1.0064282031e+05
    1.6968490556e-02    1.0063509375e+05
    1.6993366182e-02    1.0061727344e+05
    1.7018226907e-02    1.0059660156e+05
    1.7043072730e-02    1.0056985156e+05
    1.7067901790e-02    1.0053834375e+05
    1.7092714086e-02    1.0050822656e+05
    1.7117511481e-02    1.0048274219e+05
    1.7142292112e-02    1.0045011719e+05
    1.7167057842e-02    1.0041759375e+05
    1.7191808671e-02    1.0039090625e+05
    1.7216544598e-02    1.0034964844e+05
    1.7241263762e-02    1.0030756250e+05
    1.7265968025e-02    1.0026878906e+05
    1.7290659249e-02    1.0022346875e+05
    1.7315333709e-02    1.0017724219e+05
    1.7339993268e-02    1.0013032031e+05
    1.7364639789e-02    1.0008197656e+05
    1.7389267683e-02    1.0004036719e+05
    1.7413880676e-02    1.0000543750e+05
    1.7438478768e-02    9.9983226562e+04
    1.7463061959e-02    9.9954726562e+04
    1.7487626523e-02    9.9935039062e+04
    1.7512176186e-02    9.9929585938e+04
    1.7536709085e-02    9.9933648438e+04
    1.7561223358e-02    9.9943585938e+04
    1.7585720867e-02    9.9962398438e+04
    1.7610201612e-02    9.9986757812e+04
    1.7634663731e-02    1.0001761719e+05
    1.7659107223e-02    1.0005165625e+05
    1.7683532089e-02    1.0009427344e+05
    1.7707940191e-02    1.0013657031e+05
    1.7732329667e-02    1.0018067969e+05
    1.7756698653e-02    1.0022396875e+05
    1.7781050876e-02    1.0027072656e+05
    1.7805384472e-02    1.0032675000e+05
    1.7829699442e-02    1.0037408594e+05
    1.7853999510e-02    1.0041327344e+05
    1.7878280953e-02    1.0045497656e+05
    1.7902545631e-02    1.0049096094e+05
    1.7926793545e-02    1.0052941406e+05
    1.7951028422e-02    1.0055660156e+05
    1.7975246534e-02    1.0057750000e+05
    1.7999447882e-02    1.0059727344e+05
    1.8023636192e-02    1.0060383594e+05
    1.8047811463e-02    1.0060088281e+05
    1.8071975559e-02    1.0059514844e+05
    1.8096126616e-02    1.0058657031e+05
    1.8120266497e-02    1.0057517969e+05
    1.8144397065e-02    1.0055256250e+05
    1.8168520182e-02    1.0052389844e+05
    1.8192630261e-02    1.0048524219e+05
    1.8216732889e-02    1.0043983594e+05
    1.8240824342e-02    1.0039944531e+05
    1.8264908344e-02    1.0035940625e+05
    1.8288983032e-02    1.0032596875e+05
    1.8313048407e-02    1.0029188281e+05
    1.8337102607e-02    1.0025942969e+05
    1.8361147493e-02    1.0022521875e+05
    1.8385183066e-02    1.0019107031e+05
    1.8409207463e-02    1.0016813281e+05
    1.8433224410e-02    1.0015503125e+05
    1.8457230181e-02    1.0014333594e+05
    1.8481226638e-02    1.0013946094e+05
    1.8505210057e-02    1.0015458594e+05
    1.8529184163e-02    1.0017790625e+05
    1.8553148955e-02    1.0021862500e+05
    1.8577100709e-02    1.0027457031e+05
    1.8601041287e-02    1.0034039844e+05
    1.8624972552e-02    1.0041664844e+05
    1.8648892641e-02    1.0051008594e+05
    1.8672801554e-02    1.0061233594e+05
    1.8696699291e-02    1.0072488281e+05
    1.8720587716e-02    1.0083810156e+05
    1.8744463101e-02    1.0095096094e+05
    1.8768329173e-02    1.0105514844e+05
    1.8792184070e-02    1.0115902344e+05
    1.8816027790e-02    1.0124941406e+05
    1.8839860335e-02    1.0132893750e+05
    1.8863683566e-02    1.0138717969e+05
    1.8887493759e-02    1.0143321875e+05
    1.8911294639e-02    1.0146566406e+05
    1.8935086206e-02    1.0148721875e+05
    1.8958866596e-02    1.0149247656e+05
    1.8982635811e-02    1.0149927344e+05
    1.9006397575e-02    1.0148985156e+05
    1.9030146301e-02    1.0147962500e+05
    1.9053885713e-02    1.0146814844e+05
    1.9077615812e-02    1.0145152344e+05
    1.9101334736e-02    1.0143687500e+05
    1.9125042483e-02    1.0142025781e+05
    1.9148740917e-02    1.0140358594e+05
    1.9172428176e-02    1.0139547656e+05
    1.9196104258e-02    1.0139297656e+05
    1.9219771028e-02    1.0139388281e+05
    1.9243424758e-02    1.0140202344e+05
    1.9267069176e-02    1.0141058594e+05
    1.9290700555e-02    1.0142652344e+05
    1.9314322621e-02    1.0146016406e+05
    1.9337931648e-02    1.0149474219e+05
    1.9361529499e-02    1.0154827344e+05
    1.9385114312e-02    1.0161483594e+05
    1.9408687949e-02    1.0169028906e+05
    1.9432250410e-02    1.0177606250e+05
    1.9455801696e-02    1.0188000781e+05
    1.9479339942e-02    1.0200149219e+05
    1.9502865151e-02    1.0211965625e+05
    1.9526379183e-02    1.0225411719e+05
    1.9549878314e-02    1.0239353125e+05
    1.9573366269e-02    1.0253052344e+05
    1.9596841186e-02    1.0266637500e+05
    1.9620303065e-02    1.0279866406e+05
    1.9643751904e-02    1.0291497656e+05
    1.9667187706e-02    1.0301035156e+05
    1.9690606743e-02    1.0307743750e+05
    1.9714014605e-02    1.0311989844e+05
    1.9737409428e-02    1.0313507031e+05
    1.9760791212e-02    1.0311952344e+05
    1.9784159958e-02    1.0306767969e+05
    1.9807513803e-02    1.0298735156e+05
    1.9830854610e-02    1.0288386719e+05
    1.9854182377e-02    1.0274921094e+05
    1.9877497107e-02    1.0258383594e+05
    1.9900798798e-02    1.0239840625e+05
    1.9924087450e-02    1.0219092969e+05
    1.9947361201e-02    1.0196485156e+05
    1.9970623776e-02    1.0173427344e+05
    1.9993871450e-02    1.0151178906e+05
    2.0017107949e-02    1.0129862500e+05
    2.0040329546e-02    1.0110590625e+05
    2.0063538104e-02    1.0093759375e+05
    2.0086731762e-02    1.0079694531e+05
    2.0109914243e-02    1.0067969531e+05
    2.0133081824e-02    1.0059580469e+05
    2.0156236365e-02    1.0053866406e+05
    2.0179376006e-02    1.0050814844e+05
    2.0202504471e-02    1.0050103906e+05
    2.0225618035e-02    1.0050989844e+05
    2.0248720422e-02    1.0053344531e+05
    2.0271807909e-02    1.0055803125e+05
    2.0294882357e-02    1.0059243750e+05
    2.0317947492e-02    1.0062777344e+05
    2.0340997726e-02    1.0066225000e+05
    2.0364036784e-02    1.0070399219e+05
    2.0387060940e-02    1.0073984375e+05
    2.0410073921e-02    1.0076944531e+05
    2.0433073863e-02    1.0080605469e+05
    2.0456060767e-02    1.0083912500e+05
    2.0479036495e-02    1.0087297656e+05
    2.0501999184e-02    1.0091446094e+05
    2.0524948835e-02    1.0095072656e+05
    2.0547885448e-02    1.0099284375e+05
    2.0570809022e-02    1.0103960156e+05
    2.0593719557e-02    1.0107946094e+05
    2.0616617054e-02    1.0112530469e+05
    2.0639499649e-02    1.0118550000e+05
    2.0662369207e-02    1.0124697656e+05
    2.0685223863e-02    1.0132147656e+05
    2.0708063617e-02    1.0139913281e+05
    2.0730890334e-02    1.0148203906e+05
    2.0753700286e-02    1.0157491406e+05
    2.0776495337e-02    1.0167559375e+05
    2.0799275488e-02    1.0177494531e+05
    2.0822042599e-02    1.0187921094e+05
    2.0844791085e-02    1.0199197656e+05
    2.0867524669e-02    1.0209755469e+05
    2.0890241489e-02    1.0219977344e+05
    2.0912945271e-02    1.0230015625e+05
    2.0935632288e-02    1.0240171875e+05
    2.0958306268e-02    1.0249903125e+05
    2.0980965346e-02    1.0259257031e+05
    2.1003607661e-02    1.0268062500e+05
    2.1026238799e-02    1.0275902344e+05
    2.1048855036e-02    1.0282777344e+05
    2.1071458235e-02    1.0289935156e+05
    2.1094048396e-02    1.0296032031e+05
    2.1116625518e-02    1.0301484375e+05
    2.1139191464e-02    1.0306319531e+05
    2.1161744371e-02    1.0309664844e+05
    2.1184286103e-02    1.0311997656e+05
    2.1206818521e-02    1.0313483594e+05
    2.1229337901e-02    1.0313984375e+05
    2.1251846105e-02    1.0313800781e+05
    2.1274344996e-02    1.0312290625e+05
    2.1296832711e-02    1.0309325781e+05
    2.1319312975e-02    1.0305786719e+05
    2.1341778338e-02    1.0301584375e+05
    2.1364232525e-02    1.0297141406e+05
    2.1386675537e-02    1.0291778906e+05
    2.1409107372e-02    1.0287192969e+05
    2.1431528032e-02    1.0281686719e+05
    2.1453931928e-02    1.0275691406e+05
    2.1476324648e-02    1.0269436719e+05
    2.1498700604e-02    1.0263255469e+05
    2.1521063522e-02    1.0256647656e+05
    2.1543409675e-02    1.0250222656e+05
    2.1565740928e-02    1.0243618750e+05
    2.1588053554e-02    1.0237003906e+05
    2.1610351279e-02    1.0230203906e+05
    2.1632634103e-02    1.0223171094e+05
    2.1654898301e-02    1.0216741406e+05
    2.1677147597e-02    1.0210389844e+05
    2.1699378267e-02    1.0203939844e+05
    2.1721594036e-02    1.0197397656e+05
    2.1743793041e-02    1.0191227344e+05
    2.1765975282e-02    1.0184778125e+05
    2.1788140759e-02    1.0178669531e+05
    2.1810289472e-02    1.0172831250e+05
    2.1832419559e-02    1.0167344531e+05
    2.1854531020e-02    1.0162109375e+05
    2.1876627579e-02    1.0157743750e+05
    2.1898705512e-02    1.0153247656e+05
    2.1920768544e-02    1.0149590625e+05
    2.1942811087e-02    1.0146218750e+05
    2.1964838728e-02    1.0143624219e+05
    2.1986849606e-02    1.0141377344e+05
    2.2008845583e-02    1.0139680469e+05
    2.2030822933e-02    1.0138564844e+05
    2.2052785382e-02    1.0137189844e+05
    2.2074732929e-02    1.0136959375e+05
    2.2096665576e-02    1.0137278906e+05
    2.2118583322e-02    1.0136635156e+05
    2.2140489891e-02    1.0137071094e+05
    2.2162377834e-02    1.0137780469e+05
    2.2184254602e-02    1.0138869531e+05
    2.2206118330e-02    1.0139717969e+05
    2.2227969021e-02    1.0140828906e+05
    2.2249806672e-02    1.0142253906e+05
    2.2271629423e-02    1.0143691406e+05
    2.2293440998e-02    1.0144783594e+05
    2.2315241396e-02    1.0145739844e+05
    2.2337028757e-02    1.0147137500e+05
    2.2358803079e-02    1.0148272656e+05
    2.2380566224e-02    1.0149694531e+05
    2.2402318195e-02    1.0150677344e+05
    2.2424057126e-02    1.0151492969e+05
    2.2445784882e-02    1.0151658594e+05
    2.2467501462e-02    1.0151500000e+05
    2.2489206865e-02    1.0151291406e+05
    2.2510899231e-02    1.0150239844e+05
    2.2532582283e-02    1.0149389844e+05
    2.2554252297e-02    1.0148049219e+05
    2.2575911134e-02    1.0146739844e+05
    2.2597560659e-02    1.0145825000e+05
    2.2619199008e-02    1.0145002344e+05
    2.2640828043e-02    1.0144037500e+05
    2.2662445903e-02    1.0143541406e+05
    2.2684050724e-02    1.0143086719e+05
    2.2705646232e-02    1.0142678906e+05
    2.2727232426e-02    1.0142308594e+05
    2.2748809308e-02    1.0142364844e+05
    2.2770375013e-02    1.0142821094e+05
    2.2791929543e-02    1.0142666406e+05
    2.2813472897e-02    1.0143152344e+05
    2.2835006937e-02    1.0143662500e+05
    2.2856531665e-02    1.0144247656e+05
    2.2878047079e-02    1.0144271875e+05
    2.2899549454e-02    1.0144463281e+05
    2.2921044379e-02    1.0144922656e+05
    2.2942528129e-02    1.0146249219e+05
    2.2964000702e-02    1.0146502344e+05
    2.2985465825e-02    1.0146802344e+05
    2.3006917909e-02    1.0147484375e+05
    2.3028360680e-02    1.0148071094e+05
    2.3049792275e-02    1.0148435156e+05
    2.3071214557e-02    1.0148827344e+05
    2.3092625663e-02    1.0149252344e+05
    2.3114029318e-02    1.0149925000e+05
    2.3135419935e-02    1.0150513281e+05
    2.3156799376e-02    1.0150989844e+05
    2.3178169504e-02    1.0151349219e+05
    2.3199530318e-02    1.0151591406e+05
    2.3220879957e-02    1.0151814844e+05
    2.3242218420e-02    1.0151580469e+05
    2.3263547570e-02    1.0151283594e+05
    2.3284865543e-02    1.0151783594e+05
    2.3306174204e-02    1.0151928906e+05
    2.3327469826e-02    1.0152181250e+05
    2.3348756135e-02    1.0152207031e+05
    2.3370031267e-02    1.0152317969e+05
    2.3391297087e-02    1.0152383594e+05
    2.3412553594e-02    1.0151497656e+05
    2.3433798924e-02    1.0151772656e+05
    2.3455033079e-02    1.0152190625e+05
    2.3476256058e-02    1.0152782031e+05
    2.3497469723e-02    1.0152556250e+05
    2.3518672213e-02    1.0152064844e+05
    2.3539865389e-02    1.0152833594e+05
    2.3561049253e-02    1.0152680469e+05
    2.3582221940e-02    1.0152541406e+05
    2.3603385314e-02    1.0152282031e+05
    2.3624535650e-02    1.0152249219e+05
    2.3645676672e-02    1.0152916406e+05
    2.3666808382e-02    1.0153056250e+05
    2.3687927052e-02    1.0153227344e+05
    2.3709038273e-02    1.0154472656e+05
    2.3730138317e-02    1.0154712500e+05
    2.3751227185e-02    1.0155307031e+05
    2.3772306740e-02    1.0155497656e+05
    2.3793375120e-02    1.0156025781e+05
    2.3814432323e-02    1.0157035156e+05
    2.3835480213e-02    1.0157632031e+05
    2.3856516927e-02    1.0158139844e+05
    2.3877544329e-02    1.0158675000e+05
    2.3898560554e-02    1.0159228125e+05
    2.3919565603e-02    1.0159691406e+05
    2.3940561339e-02    1.0160383594e+05
    2.3961545900e-02    1.0161075781e+05
    2.3982519284e-02    1.0161655469e+05
    2.4003483355e-02    1.0162232031e+05
    2.4024436250e-02    1.0162308594e+05
    2.4045377970e-02    1.0162402344e+05
    2.4066310376e-02    1.0162236719e+05
    2.4087233469e-02    1.0162394531e+05
    2.4108145386e-02    1.0162782031e+05
    2.4129044265e-02    1.0163535156e+05
    2.4149935693e-02    1.0163678906e+05
    2.4170814082e-02    1.0163544531e+05
    2.4191683158e-02    1.0163219531e+05
    2.4212542921e-02    1.0162839844e+05
    2.4233391508e-02    1.0161771875e+05
    2.4254228920e-02    1.0160866406e+05
    2.4275057018e-02    1.0160343750e+05
    2.4295873940e-02    1.0160158594e+05
    2.4316681549e-02    1.0160658594e+05
    2.4337477982e-02    1.0160212500e+05
    2.4358265102e-02    1.0159016406e+05
    2.4379042909e-02    1.0157937500e+05
    2.4399809539e-02    1.0156707031e+05
    2.4420566857e-02    1.0156092969e+05
    2.4441312999e-02    1.0155662500e+05
    2.4462047964e-02    1.0154833594e+05
    2.4482775480e-02    1.0153958594e+05
    2.4503491819e-02    1.0152828906e+05
    2.4524198845e-02    1.0151622656e+05
    2.4544894695e-02    1.0150866406e+05
    2.4565581232e-02    1.0150085156e+05
    2.4586258456e-02    1.0149646094e+05
    2.4606924504e-02    1.0148515625e+05
    2.4627581239e-02    1.0147792969e+05
    2.4648228660e-02    1.0146928906e+05
    2.4668866768e-02    1.0145537500e+05
    2.4689495564e-02    1.0144835156e+05
    2.4710113183e-02    1.0143546094e+05
    2.4730721489e-02    1.0142950000e+05
    2.4751318619e-02    1.0142135156e+05
    2.4771906435e-02    1.0141471875e+05
    2.4792486802e-02    1.0140946094e+05
    2.4813055992e-02    1.0140532031e+05
    2.4833614007e-02    1.0139872656e+05
    2.4854162708e-02    1.0138493750e+05
    2.4874702096e-02    1.0137797656e+05
    2.4895232171e-02    1.0136543750e+05
    2.4915752932e-02    1.0135863281e+05
    2.4936262518e-02    1.0135336719e+05
    2.4956764653e-02    1.0134619531e+05
    2.4977253750e-02    1.0134130469e+05
    2.4997735396e-02    1.0133889844e+05
    2.5018205866e-02    1.0133342969e+05
    2.5038668886e-02    1.0132203125e+05
    2.5059120730e-02    1.0131796094e+05
    2.5079563260e-02    1.0131996094e+05
    2.5099996477e-02    1.0132060156e+05
    2.5120420381e-02    1.0132599219e+05
    2.5140833110e-02    1.0133510156e+05
    2.5161236525e-02    1.0134675781e+05
    2.5181630626e-02    1.0135600781e+05
    2.5202017277e-02    1.0136853125e+05
    2.5222390890e-02    1.0138221875e+05
    2.5242757052e-02    1.0139841406e+05
    2.5263112038e-02    1.0141299219e+05
    2.5283459574e-02    1.0144202344e+05
    2.5303795934e-02    1.0146635156e+05
    2.5324124843e-02    1.0149341406e+05
    2.5344440714e-02    1.0152455469e+05
    2.5364749134e-02    1.0154914844e+05
    2.5385048240e-02    1.0157391406e+05
    2.5405339897e-02    1.0160215625e+05
    2.5425618514e-02    1.0163519531e+05
    2.5445887819e-02    1.0165966406e+05
    2.5466147810e-02    1.0168721875e+05
    2.5486400351e-02    1.0170564844e+05
    2.5506639853e-02    1.0172353906e+05
    2.5526873767e-02    1.0173641406e+05
    2.5547094643e-02    1.0174352344e+05
    2.5567308068e-02    1.0174925781e+05
    2.5587510318e-02    1.0175099219e+05
    2.5607703254e-02    1.0174885156e+05
    2.5627886876e-02    1.0173511719e+05
    2.5648061186e-02    1.0171619531e+05
    2.5668226182e-02    1.0169300000e+05
    2.5688380003e-02    1.0166427344e+05
    2.5708526373e-02    1.0163097656e+05
    2.5728661567e-02    1.0159066406e+05
    2.5748789310e-02    1.0154377344e+05
    2.5768904015e-02    1.0149413281e+05
    2.5789011270e-02    1.0143816406e+05
    2.5809109211e-02    1.0138428906e+05
    2.5829195976e-02    1.0133336719e+05
    2.5849273428e-02    1.0128444531e+05
    2.5869343430e-02    1.0123377344e+05
    2.5889402255e-02    1.0119690625e+05
    2.5909451768e-02    1.0116358594e+05
    2.5929493830e-02    1.0113893750e+05
    2.5949522853e-02    1.0112553906e+05
    2.5969544426e-02    1.0111756250e+05
    2.5989556685e-02    1.0111680469e+05
    2.6009559631e-02    1.0111978125e+05
    2.6029553264e-02    1.0113877344e+05
    2.6049537584e-02    1.0115481250e+05
    2.6069512591e-02    1.0118400000e+05
    2.6089478284e-02    1.0121502344e+05
    2.6109432802e-02    1.0125215625e+05
    2.6129379869e-02    1.0128389844e+05
    2.6149315760e-02    1.0131621094e+05
    2.6169244200e-02    1.0134696094e+05
    2.6189163327e-02    1.0137741406e+05
    2.6209073141e-02    1.0140299219e+05
    2.6228975505e-02    1.0143341406e+05
    2.6248866692e-02    1.0145840625e+05
    2.6268748567e-02    1.0148677344e+05
    2.6288621128e-02    1.0150994531e+05
    2.6308484375e-02    1.0152671094e+05
    2.6328338310e-02    1.0153999219e+05
    2.6348184794e-02    1.0155633594e+05
    2.6368021965e-02    1.0157260156e+05
    2.6387847960e-02    1.0158871094e+05
    2.6407664642e-02    1.0160493750e+05
    2.6427472010e-02    1.0162105469e+05
    2.6447271928e-02    1.0163705469e+05
    2.6467062533e-02    1.0165283594e+05
    2.6486843824e-02    1.0166839844e+05
    2.6506617665e-02    1.0167921875e+05
    2.6526380330e-02    1.0169942969e+05
    2.6546133682e-02    1.0171522656e+05
    2.6565877721e-02    1.0173350781e+05
    2.6585612446e-02    1.0174947656e+05
    2.6605339721e-02    1.0176071875e+05
    2.6625057682e-02    1.0177659375e+05
    2.6644766331e-02    1.0179235156e+05
    2.6664465666e-02    1.0180883594e+05
    2.6684155688e-02    1.0181424219e+05
    2.6703836396e-02    1.0181975000e+05
    2.6723509654e-02    1.0182294531e+05
    2.6743173599e-02    1.0182496094e+05
    2.6762828231e-02    1.0182577344e+05
    2.6782475412e-02    1.0182436719e+05
    2.6802113280e-02    1.0182308594e+05
    2.6821739972e-02    1.0182335156e+05
    2.6841359213e-02    1.0182021875e+05
    2.6860967278e-02    1.0181593750e+05
    2.6880569756e-02    1.0181180469e+05
    2.6900164783e-02    1.0180325000e+05
    2.6919748634e-02    1.0179496094e+05
    2.6939325035e-02    1.0179028906e+05
    2.6958892122e-02    1.0178630469e+05
    2.6978449896e-02    1.0178632031e+05
    2.6997998357e-02    1.0177444531e+05
    2.7017539367e-02    1.0177371094e+05
    2.7037071064e-02    1.0177521094e+05
    2.7056595311e-02    1.0177187500e+05
    2.7076110244e-02    1.0176455469e+05
    2.7095617726e-02    1.0175935156e+05
    2.7115115896e-02    1.0175250781e+05
    2.7134604752e-02    1.0174753906e+05
    2.7154086158e-02    1.0173982031e+05
    2.7173558250e-02    1.0173412500e+05
    2.7193021029e-02    1.0173078906e+05
    2.7212476358e-02    1.0172722656e+05
    2.7231922373e-02    1.0172244531e+05
    2.7251357213e-02    1.0171762500e+05
    2.7270786464e-02    1.0171383594e+05
    2.7290204540e-02    1.0170780469e+05
    2.7309613302e-02    1.0170171875e+05
    2.7329014614e-02    1.0169900781e+05
    2.7348404750e-02    1.0169396094e+05
    2.7367785573e-02    1.0168775000e+05
    2.7387158945e-02    1.0168592969e+05
    2.7406521142e-02    1.0168046875e+05
    2.7425874025e-02    1.0167368750e+05
    2.7445219457e-02    1.0166581250e+05
    2.7464553714e-02    1.0167057031e+05
    2.7483878657e-02    1.0166641406e+05
    2.7503194287e-02    1.0166219531e+05
    2.7522502467e-02    1.0165694531e+05
    2.7541799471e-02    1.0165285156e+05
    2.7561087161e-02    1.0164902344e+05
    2.7580365539e-02    1.0165025000e+05
    2.7599634603e-02    1.0165283594e+05
    2.7618894354e-02    1.0165846094e+05
    2.7638144791e-02    1.0165757031e+05
    2.7657385916e-02    1.0165825781e+05
    2.7676619589e-02    1.0165694531e+05
    2.7695843950e-02    1.0166728125e+05
    2.7715058997e-02    1.0166416406e+05
    2.7734262869e-02    1.0166203125e+05
    2.7753459290e-02    1.0165996875e+05
    2.7772648260e-02    1.0166371094e+05
    2.7791827917e-02    1.0166327344e+05
    2.7810998261e-02    1.0167261719e+05
    2.7830159292e-02    1.0167800781e+05
    2.7849311009e-02    1.0168533594e+05
    2.7868455276e-02    1.0168586719e+05
    2.7887590230e-02    1.0168968750e+05
    2.7906717733e-02    1.0168192969e+05
    2.7925835922e-02    1.0168766406e+05
    2.7944946662e-02    1.0169396875e+05
    2.7964048088e-02    1.0169621094e+05
    2.7983140200e-02    1.0170936719e+05
    2.8002224863e-02    1.0171257031e+05
    2.8021300212e-02    1.0171703125e+05
    2.8040368110e-02    1.0172016406e+05
    2.8059426695e-02    1.0172297656e+05
    2.8078475967e-02    1.0172553906e+05
    2.8097519651e-02    1.0172582031e+05
    2.8116554022e-02    1.0173072656e+05
    2.8135580942e-02    1.0173475000e+05
    2.8154598549e-02    1.0173916406e+05
    2.8173606843e-02    1.0174496094e+05
    2.8192607686e-02    1.0175364844e+05
    2.8211599216e-02    1.0175761719e+05
    2.8230583295e-02    1.0175927344e+05
    2.8249559924e-02    1.0175812500e+05
    2.8268527240e-02    1.0176149219e+05
    2.8287487105e-02    1.0176372656e+05
    2.8306435794e-02    1.0177300000e+05
    2.8325378895e-02    1.0177396094e+05
    2.8344312683e-02    1.0177340625e+05
    2.8363237157e-02    1.0177521875e+05
    2.8382156044e-02    1.0178034375e+05
    2.8401065618e-02    1.0178319531e+05
    2.8419965878e-02    1.0178378906e+05
    2.8438858688e-02    1.0178671875e+05
    2.8457742184e-02    1.0178975781e+05
    2.8476616368e-02    1.0179269531e+05
    2.8495483100e-02    1.0179084375e+05
    2.8514338657e-02    1.0178833594e+05
    2.8533160686e-02    1.0179035156e+05
    2.8551930562e-02    1.0179680469e+05
    2.8570635244e-02    1.0180128125e+05
    2.8589271009e-02    1.0180359375e+05
    2.8607837856e-02    1.0179646094e+05
    2.8626350686e-02    1.0180072656e+05
    2.8644818813e-02    1.0180256250e+05
    2.8663259000e-02    1.0179960156e+05
    2.8681686148e-02    1.0179747656e+05
    2.8700113297e-02    1.0179742969e+05
    2.8718546033e-02    1.0180187500e+05
    2.8736986220e-02    1.0180678906e+05
    2.8755431995e-02    1.0180943750e+05
    2.8773877770e-02    1.0180980469e+05
    2.8792314231e-02    1.0181136719e+05
    2.8810730204e-02    1.0180571094e+05
    2.8829116374e-02    1.0180434375e+05
    2.8847465292e-02    1.0180635156e+05
    2.8865773231e-02    1.0181156250e+05
    2.8884036466e-02    1.0180661719e+05
    2.8902258724e-02    1.0180716406e+05
    2.8920443729e-02    1.0180546094e+05
    2.8938598931e-02    1.0180853906e+05
    2.8956729919e-02    1.0180953906e+05
    2.8974846005e-02    1.0181627344e+05
    2.8992949054e-02    1.0181646875e+05
    2.9011042789e-02    1.0181306250e+05
    2.9029129073e-02    1.0181875781e+05
    2.9047204182e-02    1.0181406250e+05
    2.9065268114e-02    1.0181494531e+05
    2.9083315283e-02    1.0181699219e+05
    2.9101338238e-02    1.0182022656e+05
    2.9119335115e-02    1.0182600781e+05
    2.9137304053e-02    1.0182014844e+05
    2.9155241325e-02    1.0182103125e+05
    2.9173148796e-02    1.0182196094e+05
    2.9191024601e-02    1.0182516406e+05
    2.9208874330e-02    1.0182860156e+05
    2.9226697981e-02    1.0182624219e+05
    2.9244501144e-02    1.0182840625e+05
    2.9262285680e-02    1.0182816406e+05
    2.9280053452e-02    1.0182793750e+05
    2.9297806323e-02    1.0182875000e+05
    2.9315544292e-02    1.0182960156e+05
    2.9333265498e-02    1.0183271094e+05
    2.9350971803e-02    1.0183353906e+05
    2.9368655756e-02    1.0183318750e+05
    2.9386319220e-02    1.0183289844e+05
    2.9403960332e-02    1.0183374219e+05
    2.9421577230e-02    1.0183580469e+05
    2.9439168051e-02    1.0183808594e+05
    2.9456734657e-02    1.0183928906e+05
    2.9474277049e-02    1.0184053906e+05
    2.9491795227e-02    1.0184540625e+05
    2.9509292915e-02    1.0184302344e+05
    2.9526771978e-02    1.0184411719e+05
    2.9544232413e-02    1.0184602344e+05
    2.9561674222e-02    1.0184781250e+05
    2.9579099268e-02    1.0184837500e+05
    2.9596509412e-02    1.0183860156e+05
    2.9613900930e-02    1.0184246094e+05
    2.9631273821e-02    1.0185038281e+05
    2.9648626223e-02    1.0185177344e+05
    2.9665958136e-02    1.0185457031e+05
    2.9683271423e-02    1.0185730469e+05
    2.9700560495e-02    1.0185777344e+05
    2.9717829078e-02    1.0186758594e+05
    2.9735075310e-02    1.0186489844e+05
    2.9752301052e-02    1.0186171094e+05
    2.9769508168e-02    1.0186305469e+05
    2.9786696658e-02    1.0186422656e+05
    2.9803866521e-02    1.0186521875e+05
    2.9821017757e-02    1.0186611719e+05
    2.9838152230e-02    1.0186689844e+05
    2.9855269939e-02    1.0185841406e+05
    2.9872370884e-02    1.0185999219e+05
    2.9889453202e-02    1.0186174219e+05
    2.9906518757e-02    1.0186669531e+05
    2.9923565686e-02    1.0186483594e+05
    2.9940593988e-02    1.0185710156e+05
    2.9957601801e-02    1.0185613281e+05
    2.9974590987e-02    1.0185621094e+05
    2.9991561547e-02    1.0185619531e+05
    3.0008511618e-02    1.0185608594e+05
    3.0025444925e-02    1.0185360156e+05
    3.0042361468e-02    1.0185324219e+05
    3.0059259385e-02    1.0185277344e+05
    3.0076142401e-02    1.0185327344e+05
    3.0093006790e-02    1.0185134375e+05
    3.0109854415e-02    1.0184347656e+05
    3.0126683414e-02    1.0184219531e+05
    3.0143497512e-02    1.0183982031e+05
    3.0160292983e-02    1.0183986719e+05
    3.0177071691e-02    1.0184602344e+05
    3.0193833634e-02    1.0184802344e+05
    3.0210576952e-02    1.0184897656e+05
    3.0227303505e-02    1.0185008594e+05
    3.0244011432e-02    1.0185243750e+05
    3.0260702595e-02    1.0185385156e+05
    3.0277376994e-02    1.0185653125e+05
    3.0294034630e-02    1.0186178906e+05
    3.0310675502e-02    1.0186133594e+05
    3.0327299610e-02    1.0186450000e+05
    3.0343905091e-02    1.0186459375e+05
    3.0360495672e-02    1.0186725000e+05
    3.0377071351e-02    1.0187241406e+05
    3.0393628404e-02    1.0187563281e+05
    3.0410168692e-02    1.0188389844e+05
    3.0426690355e-02    1.0188763281e+05
    3.0443195254e-02    1.0189037500e+05
    3.0459685251e-02    1.0189781250e+05
    3.0476156622e-02    1.0190097656e+05
    3.0492611229e-02    1.0190927344e+05
    3.0509050936e-02    1.0191546875e+05
    3.0525473878e-02    1.0191964844e+05
    3.0541881919e-02    1.0193075781e+05
    3.0558273196e-02    1.0193610156e+05
    3.0574647710e-02    1.0193203906e+05
    3.0591005459e-02    1.0193339844e+05
    3.0607348308e-02    1.0193678125e+05
    3.0623674393e-02    1.0194249219e+05
    3.0639985576e-02    1.0194372656e+05
    3.0656279996e-02    1.0194850000e+05
    3.0672557652e-02    1.0195102344e+05
    3.0688818544e-02    1.0195347656e+05
    3.0705062672e-02    1.0195816406e+05
    3.0721291900e-02    1.0196037500e+05
    3.0737506226e-02    1.0196240625e+05
    3.0753703788e-02    1.0196321094e+05
    3.0769886449e-02    1.0196116406e+05
    3.0786054209e-02    1.0196143750e+05
    3.0802207068e-02    1.0196402344e+05
    3.0818343163e-02    1.0196782031e+05
    3.0834466219e-02    1.0197158594e+05
    3.0850572512e-02    1.0196838281e+05
    3.0866663903e-02    1.0197034375e+05
    3.0882738531e-02    1.0196590625e+05
    3.0898798257e-02    1.0196232031e+05
    3.0914843082e-02    1.0195568750e+05
    3.0930871144e-02    1.0195683594e+05
    3.0946886167e-02    1.0195550781e+05
    3.0962884426e-02    1.0195286719e+05
    3.0978867784e-02    1.0195466406e+05
    3.0994836241e-02    1.0195299219e+05
    3.1010789797e-02    1.0194313281e+05
    3.1026728451e-02    1.0194328125e+05
    3.1042650342e-02    1.0194094531e+05
    3.1058559194e-02    1.0193835156e+05
    3.1074455008e-02    1.0193232031e+05
    3.1090334058e-02    1.0193274219e+05
    3.1106200069e-02    1.0192375000e+05
    3.1122051179e-02    1.0192166406e+05
    3.1137887388e-02    1.0191972656e+05
    3.1153710559e-02    1.0192247656e+05
    3.1169516966e-02    1.0192178906e+05
    3.1185310334e-02    1.0191443750e+05
    3.1201090664e-02    1.0191514844e+05
    3.1216854230e-02    1.0191932031e+05
    3.1232602894e-02    1.0192018750e+05
    3.1248336658e-02    1.0190832031e+05
    3.1264055520e-02    1.0190661719e+05
    3.1279761344e-02    1.0190939844e+05
    3.1295452267e-02    1.0191253125e+05
    3.1311132014e-02    1.0191103906e+05
    3.1326796860e-02    1.0191190625e+05
    3.1342446804e-02    1.0190941406e+05
    3.1358085573e-02    1.0190582031e+05
    3.1373709440e-02    1.0190575781e+05
    3.1389318407e-02    1.0190946094e+05
    3.1404916197e-02    1.0190855469e+05
    3.1420499086e-02    1.0190772656e+05
    3.1436067075e-02    1.0190471094e+05
    3.1451620162e-02    1.0190403906e+05
    3.1467158347e-02    1.0190461719e+05
    3.1482685357e-02    1.0190653906e+05
    3.1498193741e-02    1.0190746094e+05
    3.1513694674e-02    1.0191062500e+05
    3.1529176980e-02    1.0191058594e+05
    3.1544648111e-02    1.0190953125e+05
    3.1560108066e-02    1.0191574219e+05
    3.1575553119e-02    1.0191752344e+05
    3.1590986997e-02    1.0191841406e+05
    3.1606405973e-02    1.0192402344e+05
    3.1621813774e-02    1.0192908594e+05
    3.1637206674e-02    1.0193066406e+05
    3.1652588397e-02    1.0193131250e+05
    3.1667951494e-02    1.0193884375e+05
    3.1683307141e-02    1.0194572656e+05
    3.1698647887e-02    1.0194797656e+05
    3.1713977456e-02    1.0195035156e+05
    3.1729292125e-02    1.0195275000e+05
    3.1744595617e-02    1.0195637500e+05
    3.1759884208e-02    1.0195897656e+05
    3.1775161624e-02    1.0196183594e+05
    3.1790427864e-02    1.0196853125e+05
    3.1805675477e-02    1.0197539844e+05
    3.1820915639e-02    1.0198169531e+05
    3.1836140901e-02    1.0199274219e+05
    3.1851354986e-02    1.0199721875e+05
    3.1866557896e-02    1.0200310156e+05
    3.1881745905e-02    1.0201159375e+05
    3.1896922737e-02    1.0202128125e+05
    3.1912088394e-02    1.0202893750e+05
    3.1927239150e-02    1.0203216406e+05
    3.1942378730e-02    1.0203791406e+05
    3.1957507133e-02    1.0205196875e+05
    3.1972620636e-02    1.0205924219e+05
    3.1987726688e-02    1.0206786719e+05
    3.2002814114e-02    1.0207316406e+05
    3.2017890364e-02    1.0208083594e+05
    3.2032959163e-02    1.0208727344e+05
    3.2048013061e-02    1.0209247656e+05
    3.2063052058e-02    1.0209975000e+05
    3.2078083605e-02    1.0209850000e+05
    3.2093103975e-02    1.0209944531e+05
    3.2108109444e-02    1.0210569531e+05
    3.2123107463e-02    1.0210694531e+05
    3.2138090581e-02    1.0210942969e+05
    3.2153062522e-02    1.0211183594e+05
    3.2168023288e-02    1.0211643750e+05
    3.2182972878e-02    1.0212099219e+05
    3.2197911292e-02    1.0212547656e+05
    3.2212834805e-02    1.0212983594e+05
    3.2227750868e-02    1.0213033594e+05
    3.2242652029e-02    1.0213077344e+05
    3.2257542014e-02    1.0213196094e+05
    3.2272424549e-02    1.0213507031e+05
    3.2287292182e-02    1.0213125781e+05
    3.2302148640e-02    1.0213405469e+05
    3.2316997647e-02    1.0213667969e+05
    3.2331831753e-02    1.0213914844e+05
    3.2346658409e-02    1.0213888281e+05
    3.2361470163e-02    1.0213266406e+05
    3.2376270741e-02    1.0213525000e+05
    3.2391063869e-02    1.0213408594e+05
    3.2405842096e-02    1.0212681250e+05
    3.2420612872e-02    1.0212616406e+05
    3.2435368747e-02    1.0212641406e+05
    3.2450113446e-02    1.0212647656e+05
    3.2464850694e-02    1.0211940625e+05
    3.2479573041e-02    1.0211771094e+05
    3.2494287938e-02    1.0211584375e+05
    3.2508991659e-02    1.0211487500e+05
    3.2523684204e-02    1.0211253906e+05
    3.2538365573e-02    1.0210546094e+05
    3.2553035766e-02    1.0209893750e+05
    3.2567698509e-02    1.0209691406e+05
    3.2582346350e-02    1.0209475000e+05
    3.2596986741e-02    1.0209135156e+05
    3.2611619681e-02    1.0208564844e+05
    3.2626237720e-02    1.0208314844e+05
    3.2640848309e-02    1.0208142969e+05
    3.2655447721e-02    1.0207519531e+05
    3.2670035958e-02    1.0207135156e+05
    3.2684613019e-02    1.0206518750e+05
    3.2699178904e-02    1.0206239844e+05
    3.2713737339e-02    1.0205952344e+05
    3.2728284597e-02    1.0205646094e+05
    3.2742820680e-02    1.0205214844e+05
    3.2757349312e-02    1.0205002344e+05
    3.2771866769e-02    1.0204561719e+05
    3.2786373049e-02    1.0204110156e+05
    3.2800871879e-02    1.0203763281e+05
    3.2815355808e-02    1.0203397656e+05
    3.2829832286e-02    1.0202563281e+05
    3.2844301313e-02    1.0201825000e+05
    3.2858755440e-02    1.0201778906e+05
    3.2873202115e-02    1.0201888281e+05
    3.2887637615e-02    1.0201547656e+05
    3.2902065665e-02    1.0201227344e+05
    3.2916482538e-02    1.0200921094e+05
    3.2930891961e-02    1.0200868750e+05
    3.2945290208e-02    1.0201278125e+05
    3.2959677279e-02    1.0201002344e+05
    3.2974056900e-02    1.0199806250e+05
    3.2988425344e-02    1.0199743750e+05
    3.3002786338e-02    1.0199332031e+05
    3.3017136157e-02    1.0198928125e+05
    3.3031478524e-02    1.0199572656e+05
    3.3045809716e-02    1.0199574219e+05
    3.3060129732e-02    1.0199475781e+05
    3.3074442297e-02    1.0199178906e+05
    3.3088747412e-02    1.0199246094e+05
    3.3103041351e-02    1.0199006250e+05
    3.3117324114e-02    1.0199461719e+05
    3.3131599426e-02    1.0199964844e+05
    3.3145863563e-02    1.0199775000e+05
    3.3160120249e-02    1.0199696875e+05
    3.3174365759e-02    1.0199607031e+05
    3.3188603818e-02    1.0199060156e+05
    3.3202830702e-02    1.0199168750e+05
    3.3217050135e-02    1.0199516406e+05
    3.3231258392e-02    1.0199314844e+05
    3.3245459199e-02    1.0199146094e+05
    3.3259648830e-02    1.0199127344e+05
    3.3273831010e-02    1.0200296094e+05
    3.3288005739e-02    1.0200362500e+05
    3.3302169293e-02    1.0200447656e+05
    3.3316325396e-02    1.0200646094e+05
    3.3330474049e-02    1.0200614844e+05
    3.3344611526e-02    1.0200689844e+05
    3.3358741552e-02    1.0200982031e+05
    3.3372864127e-02    1.0201042969e+05
    3.3386975527e-02    1.0201096875e+05
    3.3401079476e-02    1.0200930469e+05
    3.3415172249e-02    1.0201003906e+05
    3.3429257572e-02    1.0201328906e+05
    3.3443335444e-02    1.0201780469e+05
    3.3457405865e-02    1.0202282031e+05
    3.3471468836e-02    1.0202672656e+05
    3.3485524356e-02    1.0202819531e+05
    3.3499568701e-02    1.0201787500e+05
    3.3513605595e-02    1.0202100781e+05
    3.3527631313e-02    1.0201941406e+05
    3.3541653305e-02    1.0202000781e+05
    3.3555664122e-02    1.0202053125e+05
    3.3569667488e-02    1.0201878125e+05
    3.3583663404e-02    1.0202053906e+05
    3.3597648144e-02    1.0202244531e+05
    3.3611625433e-02    1.0202336719e+05
    3.3625595272e-02    1.0202447656e+05
    3.3639557660e-02    1.0203025781e+05
    3.3653512597e-02    1.0202653125e+05
    3.3667460084e-02    1.0202727344e+05
    3.3681396395e-02    1.0202785156e+05
    3.3695328981e-02    1.0202830469e+05
    3.3709254116e-02    1.0202627344e+05
    3.3723168075e-02    1.0202635156e+05
    3.3737078309e-02    1.0202285156e+05
    3.3750977367e-02    1.0202172656e+05
    3.3764872700e-02    1.0201833594e+05
    3.3778760582e-02    1.0202414844e+05
    3.3792637289e-02    1.0202872656e+05
    3.3806510270e-02    1.0202653906e+05
    3.3820372075e-02    1.0202658594e+05
    3.3834230155e-02    1.0202296875e+05
    3.3848077059e-02    1.0202175000e+05
    3.3861916512e-02    1.0202522656e+05
    3.3875752240e-02    1.0202763281e+05
    3.3889576793e-02    1.0202325000e+05
    3.3903393894e-02    1.0201964844e+05
    3.3917203546e-02    1.0201733594e+05
    3.3931009471e-02    1.0201953125e+05
    3.3944804221e-02    1.0201953906e+05
    3.3958595246e-02    1.0202407031e+05
    3.3972378820e-02    1.0202414844e+05
    3.3986151218e-02    1.0201966406e+05
    3.3999919891e-02    1.0201958594e+05
    3.4013681114e-02    1.0201725000e+05
    3.4027434886e-02    1.0201946094e+05
    3.4041177481e-02    1.0201941406e+05
    3.4054916352e-02    1.0201710156e+05
    3.4068647772e-02    1.0202618750e+05
    3.4082375467e-02    1.0201703125e+05
    3.4096091986e-02    1.0201684375e+05
    3.4109804779e-02    1.0201880469e+05
    3.4123510122e-02    1.0201716406e+05
    3.4137208015e-02    1.0201640625e+05
    3.4150898457e-02    1.0201189844e+05
    3.4164581448e-02    1.0200625781e+05
    3.4178260714e-02    1.0200368750e+05
    3.4191932529e-02    1.0200341406e+05
    3.4205596894e-02    1.0199984375e+05
    3.4219253808e-02    1.0199878906e+05
    3.4232903272e-02    1.0200508594e+05
    3.4246545285e-02    1.0200907031e+05
    3.4260183573e-02    1.0200871094e+05
    3.4273810685e-02    1.0200821094e+05
    3.4287434071e-02    1.0200284375e+05
    3.4301050007e-02    1.0199637500e+05
    3.4314658493e-02    1.0199653906e+05
    3.4328263253e-02    1.0199678906e+05
    3.4341860563e-02    1.0199696875e+05
    3.4355450422e-02    1.0199824219e+05
    3.4369036555e-02    1.0199253906e+05
    3.4382611513e-02    1.0198906250e+05
    3.4396182746e-02    1.0199011719e+05
    3.4409742802e-02    1.0198874219e+05
    3.4423299134e-02    1.0198366406e+05
    3.4436848015e-02    1.0198071875e+05
    3.4450393170e-02    1.0197775781e+05
    3.4463927150e-02    1.0197484375e+05
    3.4477461129e-02    1.0197781250e+05
    3.4490987659e-02    1.0197614844e+05
    3.4504506737e-02    1.0197697656e+05
    3.4518022090e-02    1.0197447656e+05
    3.4531529993e-02    1.0197211719e+05
    3.4545030445e-02    1.0197452344e+05
    3.4558523446e-02    1.0197457031e+05
    3.4572008997e-02    1.0196878125e+05
    3.4585487098e-02    1.0196744531e+05
    3.4598957747e-02    1.0196816406e+05
    3.4612424672e-02    1.0196531250e+05
    3.4625884145e-02    1.0195422656e+05
    3.4639336169e-02    1.0195334375e+05
    3.4652780741e-02    1.0194906250e+05
    3.4666225314e-02    1.0194942969e+05
    3.4679658711e-02    1.0195005469e+05
    3.4693088382e-02    1.0195536719e+05
    3.4706510603e-02    1.0195281250e+05
    3.4719929099e-02    1.0195253906e+05
    3.4733340144e-02    1.0194882031e+05
    3.4746743739e-02    1.0194947656e+05
    3.4760143608e-02    1.0193633594e+05
    3.4773536026e-02    1.0193910156e+05
    3.4786924720e-02    1.0193728906e+05
    3.4800305963e-02    1.0193702344e+05
    3.4813679755e-02    1.0193784375e+05
    3.4827046096e-02    1.0193064844e+05
    3.4840408713e-02    1.0193589844e+05
    3.4853763878e-02    1.0193085156e+05
    3.4867111593e-02    1.0192815625e+05
    3.4880455583e-02    1.0193002344e+05
    3.4893795848e-02    1.0192941406e+05
    3.4907124937e-02    1.0192758594e+05
    3.4920454025e-02    1.0192333594e+05
    3.4933775663e-02    1.0191435156e+05
    3.4947093576e-02    1.0191465625e+05
    3.4960404038e-02    1.0191971875e+05
    3.4973710775e-02    1.0192049219e+05
    3.4987010062e-02    1.0191428906e+05
endcurve
