Curveplot
LS-DYNA keyword deck by LS-PrePost                          
Time
Pressure
Defined Connection
Pressure @ 99 #pts=1745
* Minval=     9.9834929688e+04 at time=         0.0177079402
* Maxval=     1.6372932812e+05 at time=         0.0084512169
    0.0000000000e+00    9.9995273438e+04
    3.3812357287e-05    9.9995273438e+04
    6.1326652940e-05    1.0000012500e+05
    8.9102875791e-05    9.9998070312e+04
    1.1682785407e-04    9.9995976562e+04
    1.4461828687e-04    9.9998804688e+04
    1.7236733402e-04    1.0001091406e+05
    2.0016246708e-04    1.0000039844e+05
    2.2795486439e-04    9.9998523438e+04
    2.5574557367e-04    9.9998781250e+04
    2.8353667585e-04    1.0000125000e+05
    3.1133697485e-04    1.0000131250e+05
    3.3912662184e-04    1.0000116406e+05
    3.6691734567e-04    9.9994000000e+04
    3.9470891352e-04    9.9998148438e+04
    4.2249175021e-04    1.0000028125e+05
    4.5027161832e-04    1.0000035156e+05
    4.7804549104e-04    1.0000050000e+05
    5.0581363030e-04    9.9998773438e+04
    5.3357944125e-04    1.0000616406e+05
    5.6134146871e-04    1.0000209375e+05
    5.8909942163e-04    9.9998523438e+04
    6.1685312539e-04    9.9994773438e+04
    6.4460188150e-04    9.9999398438e+04
    6.7234638846e-04    1.0000228906e+05
    7.0008635521e-04    1.0000161719e+05
    7.2782178177e-04    1.0000186719e+05
    7.5555208605e-04    1.0000167969e+05
    7.8327720985e-04    9.9997906250e+04
    8.1099680392e-04    1.0000221875e+05
    8.3871174138e-04    9.9995164062e+04
    8.6642213864e-04    1.0000185156e+05
    8.9412782108e-04    9.9999664062e+04
    9.2182843946e-04    9.9997210938e+04
    9.4952445943e-04    1.0000028906e+05
    9.7721535712e-04    1.0000156250e+05
    1.0049008997e-03    1.0000421094e+05
    1.0325826006e-03    1.0000247656e+05
    1.0602590628e-03    1.0000264844e+05
    1.0879321489e-03    1.0000242969e+05
    1.1155996472e-03    9.9995257812e+04
    1.1432634201e-03    9.9991710938e+04
    1.1709230021e-03    1.0000202344e+05
    1.1985785095e-03    1.0000246875e+05
    1.2262313394e-03    1.0000063281e+05
    1.2538790470e-03    1.0000108594e+05
    1.2815232622e-03    1.0000383594e+05
    1.3091630535e-03    1.0000233594e+05
    1.3368004002e-03    1.0000628906e+05
    1.3644339051e-03    1.0000830469e+05
    1.3920635683e-03    1.0002489844e+05
    1.4196902048e-03    1.0005328125e+05
    1.4473132323e-03    1.0010375000e+05
    1.4749332331e-03    1.0019128125e+05
    1.5025498578e-03    1.0032506250e+05
    1.5301633393e-03    1.0051068750e+05
    1.5577742597e-03    1.0078211719e+05
    1.5853822697e-03    1.0109964844e+05
    1.6129877185e-03    1.0146839844e+05
    1.6405890929e-03    1.0186906250e+05
    1.6681876732e-03    1.0224764844e+05
    1.6957829939e-03    1.0259150000e+05
    1.7233766848e-03    1.0286261719e+05
    1.7509678146e-03    1.0305500781e+05
    1.7785291420e-03    1.0314677344e+05
    1.8060547300e-03    1.0313833594e+05
    1.8335470231e-03    1.0305162500e+05
    1.8610082334e-03    1.0291458594e+05
    1.8884401070e-03    1.0275347656e+05
    1.9158447394e-03    1.0257967969e+05
    1.9432241097e-03    1.0241910156e+05
    1.9705800805e-03    1.0229103125e+05
    1.9979148638e-03    1.0221780469e+05
    2.0252298564e-03    1.0219143750e+05
    2.0525271539e-03    1.0221439844e+05
    2.0798076876e-03    1.0227609375e+05
    2.1070730872e-03    1.0234428125e+05
    2.1343247499e-03    1.0241922656e+05
    2.1615643054e-03    1.0248052344e+05
    2.1887931507e-03    1.0252446094e+05
    2.2160108201e-03    1.0254094531e+05
    2.2432196420e-03    1.0253622656e+05
    2.2704207804e-03    1.0251033594e+05
    2.2976147011e-03    1.0247492969e+05
    2.3248014040e-03    1.0244921875e+05
    2.3519827519e-03    1.0242922656e+05
    2.3791582789e-03    1.0240212500e+05
    2.4063293822e-03    1.0238491406e+05
    2.4334960617e-03    1.0238046094e+05
    2.4606597144e-03    1.0238878906e+05
    2.4878205732e-03    1.0241064844e+05
    2.5149781723e-03    1.0243391406e+05
    2.5421329774e-03    1.0244188281e+05
    2.5692859199e-03    1.0244422656e+05
    2.5964374654e-03    1.0244416406e+05
    2.6235871483e-03    1.0243784375e+05
    2.6507352013e-03    1.0243280469e+05
    2.6778825559e-03    1.0243107031e+05
    2.7050296776e-03    1.0242971094e+05
    2.7321761008e-03    1.0242185156e+05
    2.7593218256e-03    1.0240980469e+05
    2.7864677832e-03    1.0241233594e+05
    2.8136142064e-03    1.0242558594e+05
    2.8407603968e-03    1.0243577344e+05
    2.8679079842e-03    1.0244691406e+05
    2.8950548731e-03    1.0246112500e+05
    2.9222022276e-03    1.0248815625e+05
    2.9493502807e-03    1.0252696094e+05
    2.9764990322e-03    1.0257118750e+05
    3.0036487151e-03    1.0263550000e+05
    3.0307997949e-03    1.0272261719e+05
    3.0579508748e-03    1.0280915625e+05
    3.0851035845e-03    1.0291508594e+05
    3.1122572254e-03    1.0302466406e+05
    3.1394117977e-03    1.0312337500e+05
    3.1665677670e-03    1.0320530469e+05
    3.1937246677e-03    1.0326441406e+05
    3.2208829653e-03    1.0330283594e+05
    3.2480424270e-03    1.0330874219e+05
    3.2752046827e-03    1.0328659375e+05
    3.2952371985e-03    1.0325521094e+05
    3.3145032357e-03    1.0322464844e+05
    3.3336398192e-03    1.0319127344e+05
    3.3528339118e-03    1.0314910156e+05
    3.3720366191e-03    1.0310080469e+05
    3.3912549261e-03    1.0305606250e+05
    3.4104890656e-03    1.0301550781e+05
    3.4297339153e-03    1.0296683594e+05
    3.4486323129e-03    1.0292925000e+05
    3.4671388566e-03    1.0288700781e+05
    3.4854323603e-03    1.0282835156e+05
    3.5036695190e-03    1.0277508594e+05
    3.5219141282e-03    1.0270511719e+05
    3.5401545465e-03    1.0263685156e+05
    3.5583588760e-03    1.0256474219e+05
    3.5765271168e-03    1.0249710156e+05
    3.5946895368e-03    1.0243167969e+05
    3.6139658187e-03    1.0237291406e+05
    3.6330535077e-03    1.0232025781e+05
    3.6521453876e-03    1.0228232031e+05
    3.6699753255e-03    1.0225185156e+05
    3.6875614896e-03    1.0222740625e+05
    3.7050142419e-03    1.0220319531e+05
    3.7224807311e-03    1.0218832031e+05
    3.7400643341e-03    1.0217602344e+05
    3.7577797193e-03    1.0216953906e+05
    3.7755726371e-03    1.0216050781e+05
    3.7933769636e-03    1.0214517969e+05
    3.8111612666e-03    1.0214052344e+05
    3.8289318327e-03    1.0213053906e+05
    3.8467168342e-03    1.0212424219e+05
    3.8645383902e-03    1.0212160156e+05
    3.8824023213e-03    1.0211562500e+05
    3.9002960548e-03    1.0211025000e+05
    3.9182156324e-03    1.0209597656e+05
    3.9361710660e-03    1.0207459375e+05
    3.9541716687e-03    1.0205732031e+05
    3.9733103476e-03    1.0203053906e+05
    3.9924201556e-03    1.0200677344e+05
    4.0104058571e-03    1.0199238281e+05
    4.0284004062e-03    1.0198010156e+05
    4.0464363992e-03    1.0198053906e+05
    4.0656095371e-03    1.0197793750e+05
    4.0847789496e-03    1.0197180469e+05
    4.1039343923e-03    1.0196983594e+05
    4.1219722480e-03    1.0195916406e+05
    4.1400394402e-03    1.0194537500e+05
    4.1591953486e-03    1.0193622656e+05
    4.1784178466e-03    1.0193178906e+05
    4.1976389475e-03    1.0192299219e+05
    4.2168586515e-03    1.0191447656e+05
    4.2360713705e-03    1.0190833594e+05
    4.2552771047e-03    1.0189993750e+05
    4.2744791135e-03    1.0188908594e+05
    4.2936825193e-03    1.0187800000e+05
    4.3128933758e-03    1.0186646094e+05
    4.3321144767e-03    1.0185636719e+05
    4.3513495475e-03    1.0184500781e+05
    4.3705995195e-03    1.0182275000e+05
    4.3898657896e-03    1.0180027344e+05
    4.4091497548e-03    1.0177727344e+05
    4.4284537435e-03    1.0174850781e+05
    4.4477786869e-03    1.0171103906e+05
    4.4671236537e-03    1.0167325000e+05
    4.4864914380e-03    1.0162293750e+05
    4.5058806427e-03    1.0156628906e+05
    4.5252908021e-03    1.0149458594e+05
    4.5447219163e-03    1.0140835156e+05
    4.5641721226e-03    1.0131656250e+05
    4.5836409554e-03    1.0121262500e+05
    4.6031279489e-03    1.0110266406e+05
    4.6226321720e-03    1.0098658594e+05
    4.6421540901e-03    1.0086815625e+05
    4.6616927721e-03    1.0073763281e+05
    4.6812482178e-03    1.0061408594e+05
    4.7008208930e-03    1.0049714844e+05
    4.7204112634e-03    1.0039510156e+05
    4.7400193289e-03    1.0030721094e+05
    4.7596455552e-03    1.0023546094e+05
    4.7792894766e-03    1.0018152344e+05
    4.7989510931e-03    1.0014657031e+05
    4.8186304048e-03    1.0014047656e+05
    4.8383255489e-03    1.0015453906e+05
    4.8580355942e-03    1.0018353906e+05
    4.8777610064e-03    1.0023286719e+05
    4.8975008540e-03    1.0029096094e+05
    4.9172551371e-03    1.0035215625e+05
    4.9370229244e-03    1.0041840625e+05
    4.9568060786e-03    1.0047137500e+05
    4.9766036682e-03    1.0052410156e+05
    4.9964170903e-03    1.0057385156e+05
    5.0162458792e-03    1.0061453125e+05
    5.0360900350e-03    1.0064941406e+05
    5.0559476949e-03    1.0066862500e+05
    5.0758207217e-03    1.0067843750e+05
    5.0957072526e-03    1.0067882031e+05
    5.1156077534e-03    1.0067703906e+05
    5.1355226897e-03    1.0066247656e+05
    5.1554525271e-03    1.0064391406e+05
    5.1753963344e-03    1.0062822656e+05
    5.1953555085e-03    1.0061310156e+05
    5.2153295837e-03    1.0059822656e+05
    5.2353194915e-03    1.0058925781e+05
    5.2553247660e-03    1.0057765625e+05
    5.2753463387e-03    1.0057232031e+05
    5.2953832783e-03    1.0057564844e+05
    5.3154369816e-03    1.0057853906e+05
    5.3355065174e-03    1.0058328906e+05
    5.3555918857e-03    1.0059403906e+05
    5.3756926209e-03    1.0060155469e+05
    5.3958082572e-03    1.0061457031e+05
    5.4159392603e-03    1.0061913281e+05
    5.4360851645e-03    1.0063508594e+05
    5.4562464356e-03    1.0064865625e+05
    5.4764230736e-03    1.0066153906e+05
    5.4966160096e-03    1.0066430469e+05
    5.5168238468e-03    1.0066493750e+05
    5.5370470509e-03    1.0066697656e+05
    5.5572865531e-03    1.0067185156e+05
    5.5775423534e-03    1.0067538281e+05
    5.5978130549e-03    1.0067066406e+05
    5.6181000546e-03    1.0067352344e+05
    5.6384028867e-03    1.0067077344e+05
    5.6587206200e-03    1.0067509375e+05
    5.6790532544e-03    1.0067771094e+05
    5.6994007900e-03    1.0068069531e+05
    5.7197632268e-03    1.0068381250e+05
    5.7401410304e-03    1.0068603125e+05
    5.7605337352e-03    1.0069056250e+05
    5.7809422724e-03    1.0069281250e+05
    5.8013652451e-03    1.0069508594e+05
    5.8218040504e-03    1.0069846875e+05
    5.8422577567e-03    1.0070221094e+05
    5.8627268299e-03    1.0070734375e+05
    5.8832112700e-03    1.0071944531e+05
    5.9037101455e-03    1.0072372656e+05
    5.9242248535e-03    1.0072094531e+05
    5.9447535314e-03    1.0072258594e+05
    5.9641525149e-03    1.0073805469e+05
    5.9830932878e-03    1.0074106250e+05
    6.0020405799e-03    1.0074416406e+05
    6.0210367665e-03    1.0074982031e+05
    6.0400799848e-03    1.0076706250e+05
    6.0591096990e-03    1.0076989844e+05
    6.0781282373e-03    1.0077280469e+05
    6.0972142965e-03    1.0077783594e+05
    6.1162756756e-03    1.0078300781e+05
    6.1353649944e-03    1.0079050000e+05
    6.1544459313e-03    1.0079585156e+05
    6.1734300107e-03    1.0081050000e+05
    6.1924448237e-03    1.0081616406e+05
    6.2115197070e-03    1.0082178906e+05
    6.2306127511e-03    1.0083210156e+05
    6.2497169711e-03    1.0084047656e+05
    6.2688281760e-03    1.0085614844e+05
    6.2879407778e-03    1.0086540625e+05
    6.3070552424e-03    1.0087771094e+05
    6.3261794858e-03    1.0089310156e+05
    6.3453060575e-03    1.0091160156e+05
    6.3644465990e-03    1.0092627344e+05
    6.3835908659e-03    1.0094184375e+05
    6.4027444459e-03    1.0096039844e+05
    6.4219115302e-03    1.0098185156e+05
    6.4410855994e-03    1.0100403906e+05
    6.4602680504e-03    1.0101992969e+05
    6.4794607460e-03    1.0104072656e+05
    6.4986641519e-03    1.0104309375e+05
    6.5178787336e-03    1.0105628125e+05
    6.5371058881e-03    1.0106174219e+05
    6.5563363023e-03    1.0107527344e+05
    6.5755699761e-03    1.0107521094e+05
    6.5948092379e-03    1.0107296875e+05
    6.6140629351e-03    1.0106849219e+05
    6.6333152354e-03    1.0106653125e+05
    6.6525745206e-03    1.0106947656e+05
    6.6718445159e-03    1.0106507031e+05
    6.6911154427e-03    1.0107283594e+05
    6.7104012705e-03    1.0107824219e+05
    6.7296870984e-03    1.0108582031e+05
    6.7489854991e-03    1.0109333594e+05
    6.7682852969e-03    1.0109375000e+05
    6.7875892855e-03    1.0109855469e+05
    6.8069072440e-03    1.0110108594e+05
    6.8262196146e-03    1.0111075000e+05
    6.8455408327e-03    1.0112353906e+05
    6.8648783490e-03    1.0114206250e+05
    6.8842126057e-03    1.0116528906e+05
    6.9035501219e-03    1.0118541406e+05
    6.9228983484e-03    1.0121059375e+05
    6.9422605447e-03    1.0124430469e+05
    6.9616222754e-03    1.0127294531e+05
    6.9809844717e-03    1.0131044531e+05
    7.0003494620e-03    1.0134793750e+05
    7.0197195746e-03    1.0139243750e+05
    7.0390999317e-03    1.0144302344e+05
    7.0584909990e-03    1.0149374219e+05
    7.0778946392e-03    1.0154456250e+05
    7.0973108523e-03    1.0159277344e+05
    7.1167377755e-03    1.0163940625e+05
    7.1361698210e-03    1.0168903906e+05
    7.1556069888e-03    1.0174341406e+05
    7.1750483476e-03    1.0178122656e+05
    7.1944966912e-03    1.0181753906e+05
    7.2139529511e-03    1.0184205469e+05
    7.2334166616e-03    1.0186102344e+05
    7.2528840974e-03    1.0186439844e+05
    7.2723543271e-03    1.0185591406e+05
    7.2918278165e-03    1.0183991406e+05
    7.3113050312e-03    1.0181209375e+05
    7.3307845742e-03    1.0177550781e+05
    7.3502692394e-03    1.0172059375e+05
    7.3697618209e-03    1.0165803906e+05
    7.3892641813e-03    1.0159003125e+05
    7.4087800458e-03    1.0150953906e+05
    7.4282912537e-03    1.0141983594e+05
    7.4477996677e-03    1.0132141406e+05
    7.4673094787e-03    1.0121689844e+05
    7.4868267402e-03    1.0111185156e+05
    7.5063589029e-03    1.0100852344e+05
    7.5258887373e-03    1.0091515625e+05
    7.5454111211e-03    1.0083016406e+05
    7.5649353676e-03    1.0076310156e+05
    7.5844703242e-03    1.0071014844e+05
    7.6040057465e-03    1.0067167969e+05
    7.6235276647e-03    1.0065478906e+05
    7.6430505142e-03    1.0065493750e+05
    7.6625877991e-03    1.0067311719e+05
    7.6821087860e-03    1.0071124219e+05
    7.7016241848e-03    1.0077181250e+05
    7.7211544849e-03    1.0084669531e+05
    7.7406810597e-03    1.0093311719e+05
    7.7602043748e-03    1.0103127344e+05
    7.7797495760e-03    1.0113425000e+05
    7.7992938459e-03    1.0124053125e+05
    7.8188432381e-03    1.0134434375e+05
    7.8384252265e-03    1.0144169531e+05
    7.8580006957e-03    1.0153296094e+05
    7.8775910661e-03    1.0160960156e+05
    7.8972103074e-03    1.0167591406e+05
    7.9168286175e-03    1.0172368750e+05
    7.9364804551e-03    1.0175550781e+05
    7.9561360180e-03    1.0177768750e+05
    7.9758102074e-03    1.0177590625e+05
    7.9955114052e-03    1.0176163281e+05
    8.0152126029e-03    1.0172892969e+05
    8.0349491909e-03    1.0168952344e+05
    8.0546662211e-03    1.0163485156e+05
    8.0743944272e-03    1.0157272656e+05
    8.0941170454e-03    1.0150644531e+05
    8.1138620153e-03    1.0144434375e+05
    8.1336386502e-03    1.0139447656e+05
    8.1534720957e-03    1.0137513281e+05
    8.1733558327e-03    1.0141253906e+05
    8.1932730973e-03    1.0155617969e+05
    8.2132071257e-03    1.0190589844e+05
    8.2330890000e-03    1.0263681250e+05
    8.2529615611e-03    1.0402841406e+05
    8.2727763802e-03    1.0651100781e+05
    8.2926023751e-03    1.1059658594e+05
    8.3124246448e-03    1.1674771094e+05
    8.3322748542e-03    1.2506689844e+05
    8.3521194756e-03    1.3498848438e+05
    8.3719678223e-03    1.4518879688e+05
    8.3917891607e-03    1.5402751562e+05
    8.4116021171e-03    1.6020351562e+05
    8.4314141423e-03    1.6328932812e+05
    8.4512168542e-03    1.6372932812e+05
    8.4710381925e-03    1.6240678125e+05
    8.4908353165e-03    1.6026234375e+05
    8.5106678307e-03    1.5812282812e+05
    8.5304882377e-03    1.5637442188e+05
    8.5503393784e-03    1.5508506250e+05
    8.5699046031e-03    1.5412895312e+05
    8.5892248899e-03    1.5329190625e+05
    8.6083402857e-03    1.5237184375e+05
    8.6272666231e-03    1.5122440625e+05
    8.6460309103e-03    1.4983390625e+05
    8.6646731943e-03    1.4825406250e+05
    8.6832325906e-03    1.4656726562e+05
    8.7017398328e-03    1.4485770312e+05
    8.7202098221e-03    1.4321890625e+05
    8.7386453524e-03    1.4168915625e+05
    8.7570473552e-03    1.4028520312e+05
    8.7753897533e-03    1.3900048438e+05
    8.7936492637e-03    1.3782437500e+05
    8.8118780404e-03    1.3671668750e+05
    8.8300397620e-03    1.3566707812e+05
    8.8481390849e-03    1.3465407812e+05
    8.8662039489e-03    1.3367226562e+05
    8.8842641562e-03    1.3270748438e+05
    8.9023411274e-03    1.3178343750e+05
    8.9204348624e-03    1.3089346094e+05
    8.9385388419e-03    1.3004621875e+05
    8.9566456154e-03    1.2925253906e+05
    8.9747514576e-03    1.2851341406e+05
    8.9928600937e-03    1.2781981250e+05
    9.0109808370e-03    1.2717939844e+05
    9.0291155502e-03    1.2656783594e+05
    9.0472688898e-03    1.2598413281e+05
    9.0654399246e-03    1.2541428906e+05
    9.0836230665e-03    1.2485717969e+05
    9.1018192470e-03    1.2431510156e+05
    9.1200266033e-03    1.2378138281e+05
    9.1382460669e-03    1.2326446094e+05
    9.1564757749e-03    1.2276038281e+05
    9.1747231781e-03    1.2227499219e+05
    9.1929892078e-03    1.2180750000e+05
    9.2112747952e-03    1.2136510156e+05
    9.2295790091e-03    1.2094233594e+05
    9.2479009181e-03    1.2053527344e+05
    9.2662386596e-03    1.2014367969e+05
    9.2845931649e-03    1.1977028906e+05
    9.3029672280e-03    1.1941334375e+05
    9.3213599175e-03    1.1907647656e+05
    9.3397712335e-03    1.1875622656e+05
    9.3582011759e-03    1.1845716406e+05
    9.3766497448e-03    1.1817802344e+05
    9.3951150775e-03    1.1792183594e+05
    9.4135999680e-03    1.1768507031e+05
    9.4321016222e-03    1.1745882031e+05
    9.4506228343e-03    1.1724877344e+05
    9.4691645354e-03    1.1704824219e+05
    9.4877239317e-03    1.1685327344e+05
    9.5063010231e-03    1.1666106250e+05
    9.5248948783e-03    1.1647336719e+05
    9.5435054973e-03    1.1627738281e+05
    9.5621328801e-03    1.1608653125e+05
    9.5807760954e-03    1.1590463281e+05
    9.5994332805e-03    1.1571711719e+05
    9.6181081608e-03    1.1554060156e+05
    9.6367979422e-03    1.1537075781e+05
    9.6555035561e-03    1.1521052344e+05
    9.6742231399e-03    1.1505489844e+05
    9.6929576248e-03    1.1490614844e+05
    9.7117051482e-03    1.1476660156e+05
    9.7304685041e-03    1.1463014844e+05
    9.7492448986e-03    1.1449699219e+05
    9.7680361941e-03    1.1436235156e+05
    9.7868405282e-03    1.1423699219e+05
    9.8056588322e-03    1.1410552344e+05
    9.8244920373e-03    1.1398521094e+05
    9.8433364183e-03    1.1386719531e+05
    9.8621929064e-03    1.1374958594e+05
    9.8810633644e-03    1.1363853906e+05
    9.8999459296e-03    1.1352886719e+05
    9.9188406020e-03    1.1343152344e+05
    9.9377483130e-03    1.1333080469e+05
    9.9566690624e-03    1.1323899219e+05
    9.9756028503e-03    1.1314639844e+05
    9.9945487455e-03    1.1305003125e+05
    1.0013507679e-02    1.1295552344e+05
    1.0032479651e-02    1.1285902344e+05
    1.0051463731e-02    1.1275467969e+05
    1.0070459917e-02    1.1264360156e+05
    1.0089469142e-02    1.1252669531e+05
    1.0108492337e-02    1.1240764844e+05
    1.0127528571e-02    1.1228212500e+05
    1.0146577843e-02    1.1215791406e+05
    1.0165639222e-02    1.1203436719e+05
    1.0184712708e-02    1.1191568750e+05
    1.0203798302e-02    1.1179877344e+05
    1.0222896002e-02    1.1168485156e+05
    1.0242006741e-02    1.1157544531e+05
    1.0261129588e-02    1.1147442969e+05
    1.0280264542e-02    1.1137575781e+05
    1.0299413465e-02    1.1128077344e+05
    1.0318575427e-02    1.1120242969e+05
    1.0337748565e-02    1.1113408594e+05
    1.0356934741e-02    1.1107877344e+05
    1.0376133956e-02    1.1103439844e+05
    1.0395346209e-02    1.1099966406e+05
    1.0414571501e-02    1.1097089844e+05
    1.0433809832e-02    1.1094528906e+05
    1.0453061201e-02    1.1091558594e+05
    1.0472324677e-02    1.1088775781e+05
    1.0491601191e-02    1.1086508594e+05
    1.0510892607e-02    1.1083571094e+05
    1.0530196130e-02    1.1081028125e+05
    1.0549513623e-02    1.1077641406e+05
    1.0568842292e-02    1.1074171094e+05
    1.0588183999e-02    1.1069471094e+05
    1.0607538745e-02    1.1064291406e+05
    1.0626907460e-02    1.1058617969e+05
    1.0646289214e-02    1.1052421094e+05
    1.0665684007e-02    1.1046352344e+05
    1.0685092770e-02    1.1040097656e+05
    1.0704516433e-02    1.1033853906e+05
    1.0723951273e-02    1.1027646094e+05
    1.0743400082e-02    1.1022102344e+05
    1.0762862861e-02    1.1017246094e+05
    1.0782338679e-02    1.1012243750e+05
    1.0801829398e-02    1.1007896094e+05
    1.0821334086e-02    1.1003542969e+05
    1.0840852745e-02    1.0999696094e+05
    1.0860386305e-02    1.0995965625e+05
    1.0879932903e-02    1.0992433594e+05
    1.0899493471e-02    1.0988465625e+05
    1.0919069871e-02    1.0984505469e+05
    1.0938662104e-02    1.0979942969e+05
    1.0958270170e-02    1.0975078906e+05
    1.0977892205e-02    1.0969612500e+05
    1.0997531936e-02    1.0963507031e+05
    1.1017187499e-02    1.0957310156e+05
    1.1036860757e-02    1.0950683594e+05
    1.1056551710e-02    1.0944350000e+05
    1.1076259427e-02    1.0937714844e+05
    1.1095987633e-02    1.0931289844e+05
    1.1115733534e-02    1.0925135156e+05
    1.1135498993e-02    1.0919971875e+05
    1.1155283079e-02    1.0915497656e+05
    1.1175086722e-02    1.0911108594e+05
    1.1194912717e-02    1.0907633594e+05
    1.1214758269e-02    1.0904660156e+05
    1.1234625243e-02    1.0900978906e+05
    1.1254511774e-02    1.0897103125e+05
    1.1274418794e-02    1.0893060156e+05
    1.1294347234e-02    1.0887960156e+05
    1.1314296164e-02    1.0882775781e+05
    1.1334266514e-02    1.0876322656e+05
    1.1354257353e-02    1.0869516406e+05
    1.1374268681e-02    1.0861558594e+05
    1.1394302361e-02    1.0852405469e+05
    1.1414355598e-02    1.0842178906e+05
    1.1434430256e-02    1.0833119531e+05
    1.1454525404e-02    1.0823315625e+05
    1.1474640109e-02    1.0814602344e+05
    1.1494777165e-02    1.0806710156e+05
    1.1514934711e-02    1.0799475000e+05
    1.1535113677e-02    1.0792865625e+05
    1.1555313133e-02    1.0786925000e+05
    1.1575534008e-02    1.0781217969e+05
    1.1595774442e-02    1.0776117969e+05
    1.1616035365e-02    1.0771277344e+05
    1.1636316776e-02    1.0767208594e+05
    1.1656619608e-02    1.0762341406e+05
    1.1676942930e-02    1.0757296094e+05
    1.1697287671e-02    1.0751022656e+05
    1.1717652902e-02    1.0744825000e+05
    1.1738038622e-02    1.0738140625e+05
    1.1758443899e-02    1.0731877344e+05
    1.1778870597e-02    1.0724553125e+05
    1.1799318716e-02    1.0718386719e+05
    1.1819788255e-02    1.0711927344e+05
    1.1840280145e-02    1.0706030469e+05
    1.1860790662e-02    1.0700886719e+05
    1.1881321669e-02    1.0695718750e+05
    1.1901874095e-02    1.0691319531e+05
    1.1922447011e-02    1.0687185156e+05
    1.1943042278e-02    1.0683096875e+05
    1.1963658035e-02    1.0679409375e+05
    1.1984295212e-02    1.0675771094e+05
    1.2004952878e-02    1.0672311719e+05
    1.2025631964e-02    1.0668414844e+05
    1.2046331540e-02    1.0665083594e+05
    1.2067052536e-02    1.0660402344e+05
    1.2087795883e-02    1.0655628906e+05
    1.2108558789e-02    1.0651103906e+05
    1.2129344046e-02    1.0646458594e+05
    1.2150149792e-02    1.0641374219e+05
    1.2170976959e-02    1.0636935156e+05
    1.2191825546e-02    1.0631009375e+05
    1.2212695554e-02    1.0625235156e+05
    1.2233586982e-02    1.0619653906e+05
    1.2254500762e-02    1.0614216406e+05
    1.2275436893e-02    1.0609022656e+05
    1.2296394445e-02    1.0604160156e+05
    1.2317374349e-02    1.0599003125e+05
    1.2338375673e-02    1.0593706250e+05
    1.2359398417e-02    1.0588612500e+05
    1.2380442582e-02    1.0583481250e+05
    1.2401508167e-02    1.0578859375e+05
    1.2422595173e-02    1.0573160156e+05
    1.2443703599e-02    1.0568112500e+05
    1.2464834377e-02    1.0562565625e+05
    1.2485986575e-02    1.0556302344e+05
    1.2507158332e-02    1.0549721094e+05
    1.2528351508e-02    1.0543443750e+05
    1.2549565174e-02    1.0536224219e+05
    1.2570801191e-02    1.0529103906e+05
    1.2592058629e-02    1.0521119531e+05
    1.2613337487e-02    1.0512914844e+05
    1.2634636834e-02    1.0504215625e+05
    1.2655957602e-02    1.0495439844e+05
    1.2677297927e-02    1.0485983594e+05
    1.2698660605e-02    1.0477500000e+05
    1.2720043771e-02    1.0468672656e+05
    1.2741449289e-02    1.0461971094e+05
    1.2762876227e-02    1.0455322656e+05
    1.2784325518e-02    1.0449628906e+05
    1.2805794366e-02    1.0444628125e+05
    1.2827285565e-02    1.0440488281e+05
    1.2848797254e-02    1.0437878125e+05
    1.2870330364e-02    1.0435683594e+05
    1.2891885825e-02    1.0432881250e+05
    1.2913462706e-02    1.0429646094e+05
    1.2935061008e-02    1.0426757031e+05
    1.2956679799e-02    1.0423628125e+05
    1.2978320010e-02    1.0421099219e+05
    1.2999981642e-02    1.0417341406e+05
    1.3021663763e-02    1.0414290625e+05
    1.3043368235e-02    1.0411340625e+05
    1.3065092266e-02    1.0407903906e+05
    1.3086837716e-02    1.0404935156e+05
    1.3108605519e-02    1.0401469531e+05
    1.3130392879e-02    1.0399469531e+05
    1.3152201660e-02    1.0396978125e+05
    1.3174032792e-02    1.0394603906e+05
    1.3195885345e-02    1.0391669531e+05
    1.3217759319e-02    1.0388319531e+05
    1.3239653781e-02    1.0385189844e+05
    1.3261569664e-02    1.0381546094e+05
    1.3283506967e-02    1.0377286719e+05
    1.3305463828e-02    1.0373377344e+05
    1.3327440247e-02    1.0369153906e+05
    1.3349435292e-02    1.0365424219e+05
    1.3371448033e-02    1.0362487500e+05
    1.3393475674e-02    1.0359256250e+05
    1.3415516354e-02    1.0355946094e+05
    1.3437564485e-02    1.0352540625e+05
    1.3459613547e-02    1.0349412500e+05
    1.3481658883e-02    1.0347041406e+05
    1.3503690250e-02    1.0343996094e+05
    1.3525702059e-02    1.0341239844e+05
    1.3547683135e-02    1.0339483594e+05
    1.3569628820e-02    1.0336762500e+05
    1.3591531664e-02    1.0335047656e+05
    1.3613392599e-02    1.0332775781e+05
    1.3635210693e-02    1.0332278906e+05
    1.3656994328e-02    1.0332855469e+05
    1.3678749092e-02    1.0336231250e+05
    1.3700488023e-02    1.0344000781e+05
    1.3722228818e-02    1.0356940625e+05
    1.3743981719e-02    1.0376586719e+05
    1.3765762560e-02    1.0404088281e+05
    1.3787578791e-02    1.0440642969e+05
    1.3809437864e-02    1.0488472656e+05
    1.3831341639e-02    1.0548578906e+05
    1.3853288256e-02    1.0621464844e+05
    1.3875273056e-02    1.0704755469e+05
    1.3897285797e-02    1.0796475000e+05
    1.3919321820e-02    1.0892121094e+05
    1.3941374607e-02    1.0984064844e+05
    1.3963440433e-02    1.1066735156e+05
    1.3985517435e-02    1.1133942969e+05
    1.4007603750e-02    1.1179672656e+05
    1.4029704034e-02    1.1202818750e+05
    1.4051820152e-02    1.1201364844e+05
    1.4073957689e-02    1.1178758594e+05
    1.4096121304e-02    1.1136733594e+05
    1.4118315652e-02    1.1079325781e+05
    1.4140545391e-02    1.1012291406e+05
    1.4162814245e-02    1.0940221094e+05
    1.4185124077e-02    1.0868661719e+05
    1.4207473956e-02    1.0802556250e+05
    1.4229862019e-02    1.0744508594e+05
    1.4252286404e-02    1.0697394531e+05
    1.4274741523e-02    1.0660900781e+05
    1.4297228307e-02    1.0632427344e+05
    1.4319745824e-02    1.0609146094e+05
    1.4342290349e-02    1.0586312500e+05
    1.4364863746e-02    1.0561990625e+05
    1.4387467876e-02    1.0532508594e+05
    1.4410103671e-02    1.0497224219e+05
    1.4432771131e-02    1.0455896094e+05
    1.4455472119e-02    1.0409503125e+05
    1.4478209428e-02    1.0360814844e+05
    1.4500979334e-02    1.0311892969e+05
    1.4523783699e-02    1.0265566406e+05
    1.4546621591e-02    1.0223435156e+05
    1.4569494873e-02    1.0187174219e+05
    1.4592399821e-02    1.0158321094e+05
    1.4615339227e-02    1.0137550781e+05
    1.4638305642e-02    1.0124442969e+05
    1.4661304653e-02    1.0117777344e+05
    1.4684336260e-02    1.0116180469e+05
    1.4707398601e-02    1.0118390625e+05
    1.4730494469e-02    1.0123472656e+05
    1.4753622934e-02    1.0130090625e+05
    1.4776783995e-02    1.0137013281e+05
    1.4799979515e-02    1.0142913281e+05
    1.4823205769e-02    1.0147516406e+05
    1.4846466482e-02    1.0149459375e+05
    1.4869757928e-02    1.0149141406e+05
    1.4893081971e-02    1.0146874219e+05
    1.4916437678e-02    1.0142867969e+05
    1.4939822257e-02    1.0137671094e+05
    1.4963239431e-02    1.0132585156e+05
    1.4986685477e-02    1.0128353906e+05
    1.5010161325e-02    1.0125568750e+05
    1.5033668838e-02    1.0123963281e+05
    1.5057205223e-02    1.0123255469e+05
    1.5080772340e-02    1.0124703125e+05
    1.5104367398e-02    1.0127428906e+05
    1.5127992257e-02    1.0131740625e+05
    1.5151646920e-02    1.0137725781e+05
    1.5175330453e-02    1.0144894531e+05
    1.5199041925e-02    1.0151821875e+05
    1.5222782269e-02    1.0159185156e+05
    1.5246548690e-02    1.0166984375e+05
    1.5270343982e-02    1.0173739844e+05
    1.5294168144e-02    1.0179959375e+05
    1.5318016522e-02    1.0184538281e+05
    1.5341891907e-02    1.0187637500e+05
    1.5365792438e-02    1.0189312500e+05
    1.5389721841e-02    1.0189800781e+05
    1.5413676389e-02    1.0189888281e+05
    1.5437657945e-02    1.0189866406e+05
    1.5461664647e-02    1.0190165625e+05
    1.5485695563e-02    1.0191342969e+05
    1.5509752557e-02    1.0194025000e+05
    1.5533835627e-02    1.0196799219e+05
    1.5557944775e-02    1.0199910156e+05
    1.5582079068e-02    1.0203063281e+05
    1.5606240369e-02    1.0205502344e+05
    1.5630424023e-02    1.0206633594e+05
    1.5654634684e-02    1.0206837500e+05
    1.5678871423e-02    1.0205493750e+05
    1.5703132376e-02    1.0203778906e+05
    1.5727419406e-02    1.0201527344e+05
    1.5751728788e-02    1.0198315625e+05
    1.5776060522e-02    1.0195439844e+05
    1.5800418332e-02    1.0192515625e+05
    1.5824800357e-02    1.0190427344e+05
    1.5849204734e-02    1.0187956250e+05
    1.5873633325e-02    1.0185241406e+05
    1.5898084268e-02    1.0183461719e+05
    1.5922557563e-02    1.0181202344e+05
    1.5947058797e-02    1.0178828125e+05
    1.5971582383e-02    1.0175475781e+05
    1.5996130183e-02    1.0170299219e+05
    1.6020702198e-02    1.0163533594e+05
    1.6045298427e-02    1.0156489844e+05
    1.6069920734e-02    1.0149150781e+05
    1.6094569117e-02    1.0140578125e+05
    1.6119243577e-02    1.0132039844e+05
    1.6143942252e-02    1.0122653125e+05
    1.6168667004e-02    1.0111947656e+05
    1.6193419695e-02    1.0101815625e+05
    1.6218200326e-02    1.0090791406e+05
    1.6243007034e-02    1.0081778906e+05
    1.6267839819e-02    1.0072574219e+05
    1.6292702407e-02    1.0064974219e+05
    1.6317596659e-02    1.0058608594e+05
    1.6342513263e-02    1.0053403906e+05
    1.6367461532e-02    1.0049716406e+05
    1.6392435879e-02    1.0047614844e+05
    1.6417443752e-02    1.0046911719e+05
    1.6442479566e-02    1.0048409375e+05
    1.6467543319e-02    1.0050693750e+05
    1.6492636874e-02    1.0054425000e+05
    1.6517756507e-02    1.0058203906e+05
    1.6542907804e-02    1.0061703906e+05
    1.6568088904e-02    1.0065016406e+05
    1.6593271866e-02    1.0067797656e+05
    1.6618426889e-02    1.0071322656e+05
    1.6643559560e-02    1.0073864844e+05
    1.6668669879e-02    1.0075203906e+05
    1.6693757847e-02    1.0076390625e+05
    1.6718825325e-02    1.0077041406e+05
    1.6743874177e-02    1.0077007031e+05
    1.6768900678e-02    1.0076191406e+05
    1.6793908551e-02    1.0075688281e+05
    1.6818899661e-02    1.0074185156e+05
    1.6843874007e-02    1.0073174219e+05
    1.6868829727e-02    1.0071721094e+05
    1.6893770546e-02    1.0070639844e+05
    1.6918692738e-02    1.0070452344e+05
    1.6943598166e-02    1.0070393750e+05
    1.6968490556e-02    1.0070699219e+05
    1.6993366182e-02    1.0070903906e+05
    1.7018226907e-02    1.0072243750e+05
    1.7043072730e-02    1.0072671875e+05
    1.7067901790e-02    1.0072944531e+05
    1.7092714086e-02    1.0073666406e+05
    1.7117511481e-02    1.0074214844e+05
    1.7142292112e-02    1.0074841406e+05
    1.7167057842e-02    1.0074858594e+05
    1.7191808671e-02    1.0073746094e+05
    1.7216544598e-02    1.0072212500e+05
    1.7241263762e-02    1.0069596875e+05
    1.7265968025e-02    1.0066019531e+05
    1.7290659249e-02    1.0062791406e+05
    1.7315333709e-02    1.0058810156e+05
    1.7339993268e-02    1.0054614844e+05
    1.7364639789e-02    1.0049416406e+05
    1.7389267683e-02    1.0043852344e+05
    1.7413880676e-02    1.0037850000e+05
    1.7438478768e-02    1.0031255469e+05
    1.7463061959e-02    1.0024931250e+05
    1.7487626523e-02    1.0019287500e+05
    1.7512176186e-02    1.0014539844e+05
    1.7536709085e-02    1.0008458594e+05
    1.7561223358e-02    1.0003114844e+05
    1.7585720867e-02    9.9979164062e+04
    1.7610201612e-02    9.9929000000e+04
    1.7634663731e-02    9.9890476562e+04
    1.7659107223e-02    9.9859679688e+04
    1.7683532089e-02    9.9844429688e+04
    1.7707940191e-02    9.9834929688e+04
    1.7732329667e-02    9.9837773438e+04
    1.7756698653e-02    9.9857335938e+04
    1.7781050876e-02    9.9888210938e+04
    1.7805384472e-02    9.9925531250e+04
    1.7829699442e-02    9.9963773438e+04
    1.7853999510e-02    1.0000378906e+05
    1.7878280953e-02    1.0004997656e+05
    1.7902545631e-02    1.0010137500e+05
    1.7926793545e-02    1.0015858594e+05
    1.7951028422e-02    1.0021230469e+05
    1.7975246534e-02    1.0026432031e+05
    1.7999447882e-02    1.0031531250e+05
    1.8023636192e-02    1.0036542969e+05
    1.8047811463e-02    1.0040589844e+05
    1.8071975559e-02    1.0044410156e+05
    1.8096126616e-02    1.0048006250e+05
    1.8120266497e-02    1.0050282031e+05
    1.8144397065e-02    1.0052113281e+05
    1.8168520182e-02    1.0052605469e+05
    1.8192630261e-02    1.0052907031e+05
    1.8216732889e-02    1.0052972656e+05
    1.8240824342e-02    1.0052446094e+05
    1.8264908344e-02    1.0051152344e+05
    1.8288983032e-02    1.0049627344e+05
    1.8313048407e-02    1.0046377344e+05
    1.8337102607e-02    1.0043378906e+05
    1.8361147493e-02    1.0039542969e+05
    1.8385183066e-02    1.0036396875e+05
    1.8409207463e-02    1.0032514844e+05
    1.8433224410e-02    1.0029061719e+05
    1.8457230181e-02    1.0025924219e+05
    1.8481226638e-02    1.0023044531e+05
    1.8505210057e-02    1.0021416406e+05
    1.8529184163e-02    1.0021625781e+05
    1.8553148955e-02    1.0023308594e+05
    1.8577100709e-02    1.0026477344e+05
    1.8601041287e-02    1.0031633594e+05
    1.8624972552e-02    1.0038558594e+05
    1.8648892641e-02    1.0046886719e+05
    1.8672801554e-02    1.0056721875e+05
    1.8696699291e-02    1.0068146094e+05
    1.8720587716e-02    1.0079585156e+05
    1.8744463101e-02    1.0091381250e+05
    1.8768329173e-02    1.0103228125e+05
    1.8792184070e-02    1.0114272656e+05
    1.8816027790e-02    1.0124091406e+05
    1.8839860335e-02    1.0133072656e+05
    1.8863683566e-02    1.0139991406e+05
    1.8887493759e-02    1.0145621094e+05
    1.8911294639e-02    1.0149589844e+05
    1.8935086206e-02    1.0151075000e+05
    1.8958866596e-02    1.0151577344e+05
    1.8982635811e-02    1.0150590625e+05
    1.9006397575e-02    1.0148364844e+05
    1.9030146301e-02    1.0145385156e+05
    1.9053885713e-02    1.0141635156e+05
    1.9077615812e-02    1.0137635156e+05
    1.9101334736e-02    1.0133477344e+05
    1.9125042483e-02    1.0129603906e+05
    1.9148740917e-02    1.0126603125e+05
    1.9172428176e-02    1.0124511719e+05
    1.9196104258e-02    1.0123239844e+05
    1.9219771028e-02    1.0122639844e+05
    1.9243424758e-02    1.0123285156e+05
    1.9267069176e-02    1.0125266406e+05
    1.9290700555e-02    1.0128181250e+05
    1.9314322621e-02    1.0132527344e+05
    1.9337931648e-02    1.0136941406e+05
    1.9361529499e-02    1.0143425000e+05
    1.9385114312e-02    1.0149335156e+05
    1.9408687949e-02    1.0156842969e+05
    1.9432250410e-02    1.0164527344e+05
    1.9455801696e-02    1.0173166406e+05
    1.9479339942e-02    1.0182627344e+05
    1.9502865151e-02    1.0192933594e+05
    1.9526379183e-02    1.0202915625e+05
    1.9549878314e-02    1.0213985156e+05
    1.9573366269e-02    1.0225780469e+05
    1.9596841186e-02    1.0237360156e+05
    1.9620303065e-02    1.0249422656e+05
    1.9643751904e-02    1.0261049219e+05
    1.9667187706e-02    1.0272217969e+05
    1.9690606743e-02    1.0281353906e+05
    1.9714014605e-02    1.0289046875e+05
    1.9737409428e-02    1.0294584375e+05
    1.9760791212e-02    1.0298983594e+05
    1.9784159958e-02    1.0300209375e+05
    1.9807513803e-02    1.0298628125e+05
    1.9830854610e-02    1.0294196875e+05
    1.9854182377e-02    1.0287009375e+05
    1.9877497107e-02    1.0276552344e+05
    1.9900798798e-02    1.0263525000e+05
    1.9924087450e-02    1.0247346875e+05
    1.9947361201e-02    1.0228541406e+05
    1.9970623776e-02    1.0207577344e+05
    1.9993871450e-02    1.0185536719e+05
    2.0017107949e-02    1.0163674219e+05
    2.0040329546e-02    1.0141489844e+05
    2.0063538104e-02    1.0120507031e+05
    2.0086731762e-02    1.0101589844e+05
    2.0109914243e-02    1.0085522656e+05
    2.0133081824e-02    1.0072744531e+05
    2.0156236365e-02    1.0062661719e+05
    2.0179376006e-02    1.0056527344e+05
    2.0202504471e-02    1.0053222656e+05
    2.0225618035e-02    1.0052703906e+05
    2.0248720422e-02    1.0054239844e+05
    2.0271807909e-02    1.0058222656e+05
    2.0294882357e-02    1.0063222656e+05
    2.0317947492e-02    1.0069487500e+05
    2.0340997726e-02    1.0076571875e+05
    2.0364036784e-02    1.0083439844e+05
    2.0387060940e-02    1.0089622656e+05
    2.0410073921e-02    1.0094916406e+05
    2.0433073863e-02    1.0100333594e+05
    2.0456060767e-02    1.0105428125e+05
    2.0479036495e-02    1.0109184375e+05
    2.0501999184e-02    1.0112978125e+05
    2.0524948835e-02    1.0115809375e+05
    2.0547885448e-02    1.0117712500e+05
    2.0570809022e-02    1.0119315625e+05
    2.0593719557e-02    1.0121371094e+05
    2.0616617054e-02    1.0122083594e+05
    2.0639499649e-02    1.0123069531e+05
    2.0662369207e-02    1.0125158594e+05
    2.0685223863e-02    1.0126952344e+05
    2.0708063617e-02    1.0129978125e+05
    2.0730890334e-02    1.0134203906e+05
    2.0753700286e-02    1.0138900781e+05
    2.0776495337e-02    1.0144927344e+05
    2.0799275488e-02    1.0151553125e+05
    2.0822042599e-02    1.0159603125e+05
    2.0844791085e-02    1.0167810156e+05
    2.0867524669e-02    1.0176313281e+05
    2.0890241489e-02    1.0185791406e+05
    2.0912945271e-02    1.0196014844e+05
    2.0935632288e-02    1.0206141406e+05
    2.0958306268e-02    1.0215963281e+05
    2.0980965346e-02    1.0225524219e+05
    2.1003607661e-02    1.0234360156e+05
    2.1026238799e-02    1.0243219531e+05
    2.1048855036e-02    1.0251555469e+05
    2.1071458235e-02    1.0258618750e+05
    2.1094048396e-02    1.0265953906e+05
    2.1116625518e-02    1.0272219531e+05
    2.1139191464e-02    1.0278096094e+05
    2.1161744371e-02    1.0283602344e+05
    2.1184286103e-02    1.0288121094e+05
    2.1206818521e-02    1.0291658594e+05
    2.1229337901e-02    1.0294058594e+05
    2.1251846105e-02    1.0295699219e+05
    2.1274344996e-02    1.0297175000e+05
    2.1296832711e-02    1.0297375000e+05
    2.1319312975e-02    1.0296652344e+05
    2.1341778338e-02    1.0296040625e+05
    2.1364232525e-02    1.0294152344e+05
    2.1386675537e-02    1.0291936719e+05
    2.1409107372e-02    1.0289015625e+05
    2.1431528032e-02    1.0285890625e+05
    2.1453931928e-02    1.0282358594e+05
    2.1476324648e-02    1.0278587500e+05
    2.1498700604e-02    1.0274841406e+05
    2.1521063522e-02    1.0270160156e+05
    2.1543409675e-02    1.0264103125e+05
    2.1565740928e-02    1.0258907031e+05
    2.1588053554e-02    1.0253528906e+05
    2.1610351279e-02    1.0247816406e+05
    2.1632634103e-02    1.0241500000e+05
    2.1654898301e-02    1.0235762500e+05
    2.1677147597e-02    1.0228750000e+05
    2.1699378267e-02    1.0220913281e+05
    2.1721594036e-02    1.0213897656e+05
    2.1743793041e-02    1.0206835156e+05
    2.1765975282e-02    1.0199660156e+05
    2.1788140759e-02    1.0192296094e+05
    2.1810289472e-02    1.0185568750e+05
    2.1832419559e-02    1.0178518750e+05
    2.1854531020e-02    1.0171741406e+05
    2.1876627579e-02    1.0165659375e+05
    2.1898705512e-02    1.0159580469e+05
    2.1920768544e-02    1.0154389844e+05
    2.1942811087e-02    1.0150346094e+05
    2.1964838728e-02    1.0146828125e+05
    2.1986849606e-02    1.0143597656e+05
    2.2008845583e-02    1.0140564844e+05
    2.2030822933e-02    1.0138583594e+05
    2.2052785382e-02    1.0136850000e+05
    2.2074732929e-02    1.0135727344e+05
    2.2096665576e-02    1.0135703906e+05
    2.2118583322e-02    1.0135637500e+05
    2.2140489891e-02    1.0135958594e+05
    2.2162377834e-02    1.0137297656e+05
    2.2184254602e-02    1.0138403906e+05
    2.2206118330e-02    1.0139347656e+05
    2.2227969021e-02    1.0140660156e+05
    2.2249806672e-02    1.0141628906e+05
    2.2271629423e-02    1.0143084375e+05
    2.2293440998e-02    1.0144839844e+05
    2.2315241396e-02    1.0146285156e+05
    2.2337028757e-02    1.0147553906e+05
    2.2358803079e-02    1.0148706250e+05
    2.2380566224e-02    1.0150199219e+05
    2.2402318195e-02    1.0151649219e+05
    2.2424057126e-02    1.0153035156e+05
    2.2445784882e-02    1.0153835156e+05
    2.2467501462e-02    1.0154827344e+05
    2.2489206865e-02    1.0155139844e+05
    2.2510899231e-02    1.0155128125e+05
    2.2532582283e-02    1.0154850781e+05
    2.2554252297e-02    1.0154193750e+05
    2.2575911134e-02    1.0153383594e+05
    2.2597560659e-02    1.0152232031e+05
    2.2619199008e-02    1.0151289844e+05
    2.2640828043e-02    1.0149910156e+05
    2.2662445903e-02    1.0149058594e+05
    2.2684050724e-02    1.0148146094e+05
    2.2705646232e-02    1.0147222656e+05
    2.2727232426e-02    1.0146203906e+05
    2.2748809308e-02    1.0145628125e+05
    2.2770375013e-02    1.0145083594e+05
    2.2791929543e-02    1.0144544531e+05
    2.2813472897e-02    1.0144282031e+05
    2.2835006937e-02    1.0144653906e+05
    2.2856531665e-02    1.0144399219e+05
    2.2878047079e-02    1.0144183594e+05
    2.2899549454e-02    1.0144637500e+05
    2.2921044379e-02    1.0144640625e+05
    2.2942528129e-02    1.0144993750e+05
    2.2964000702e-02    1.0144817969e+05
    2.2985465825e-02    1.0145383594e+05
    2.3006917909e-02    1.0145265625e+05
    2.3028360680e-02    1.0145508594e+05
    2.3049792275e-02    1.0145549219e+05
    2.3071214557e-02    1.0145752344e+05
    2.3092625663e-02    1.0146346094e+05
    2.3114029318e-02    1.0147041406e+05
    2.3135419935e-02    1.0147764844e+05
    2.3156799376e-02    1.0147967969e+05
    2.3178169504e-02    1.0148285156e+05
    2.3199530318e-02    1.0148587500e+05
    2.3220879957e-02    1.0148765625e+05
    2.3242218420e-02    1.0149066406e+05
    2.3263547570e-02    1.0149265625e+05
    2.3284865543e-02    1.0149566406e+05
    2.3306174204e-02    1.0149183594e+05
    2.3327469826e-02    1.0149219531e+05
    2.3348756135e-02    1.0149577344e+05
    2.3370031267e-02    1.0149577344e+05
    2.3391297087e-02    1.0149021094e+05
    2.3412553594e-02    1.0149141406e+05
    2.3433798924e-02    1.0150209375e+05
    2.3455033079e-02    1.0150161719e+05
    2.3476256058e-02    1.0150336719e+05
    2.3497469723e-02    1.0149664844e+05
    2.3518672213e-02    1.0149669531e+05
    2.3539865389e-02    1.0150481250e+05
    2.3561049253e-02    1.0151103906e+05
    2.3582221940e-02    1.0151283594e+05
    2.3603385314e-02    1.0151358594e+05
    2.3624535650e-02    1.0151428906e+05
    2.3645676672e-02    1.0151610156e+05
    2.3666808382e-02    1.0152268750e+05
    2.3687927052e-02    1.0153360156e+05
    2.3709038273e-02    1.0154132031e+05
    2.3730138317e-02    1.0155108594e+05
    2.3751227185e-02    1.0155546875e+05
    2.3772306740e-02    1.0156003906e+05
    2.3793375120e-02    1.0156815625e+05
    2.3814432323e-02    1.0158021094e+05
    2.3835480213e-02    1.0158664844e+05
    2.3856516927e-02    1.0159217969e+05
    2.3877544329e-02    1.0159559375e+05
    2.3898560554e-02    1.0160028906e+05
    2.3919565603e-02    1.0160921875e+05
    2.3940561339e-02    1.0161481250e+05
    2.3961545900e-02    1.0161886719e+05
    2.3982519284e-02    1.0161677344e+05
    2.4003483355e-02    1.0161908594e+05
    2.4024436250e-02    1.0162214844e+05
    2.4045377970e-02    1.0162028906e+05
    2.4066310376e-02    1.0161750000e+05
    2.4087233469e-02    1.0161089844e+05
    2.4108145386e-02    1.0161285156e+05
    2.4129044265e-02    1.0160765625e+05
    2.4149935693e-02    1.0160428906e+05
    2.4170814082e-02    1.0160296094e+05
    2.4191683158e-02    1.0160358594e+05
    2.4212542921e-02    1.0160166406e+05
    2.4233391508e-02    1.0159919531e+05
    2.4254228920e-02    1.0159578906e+05
    2.4275057018e-02    1.0159553906e+05
    2.4295873940e-02    1.0159635156e+05
    2.4316681549e-02    1.0159611719e+05
    2.4337477982e-02    1.0159717969e+05
    2.4358265102e-02    1.0159721094e+05
    2.4379042909e-02    1.0160177344e+05
    2.4399809539e-02    1.0160000781e+05
    2.4420566857e-02    1.0160040625e+05
    2.4441312999e-02    1.0160077344e+05
    2.4462047964e-02    1.0159985156e+05
    2.4482775480e-02    1.0160081250e+05
    2.4503491819e-02    1.0159900781e+05
    2.4524198845e-02    1.0159059375e+05
    2.4544894695e-02    1.0158268750e+05
    2.4565581232e-02    1.0156911719e+05
    2.4586258456e-02    1.0155577344e+05
    2.4606924504e-02    1.0154525000e+05
    2.4627581239e-02    1.0153284375e+05
    2.4648228660e-02    1.0151859375e+05
    2.4668866768e-02    1.0151034375e+05
    2.4689495564e-02    1.0149083594e+05
    2.4710113183e-02    1.0146903906e+05
    2.4730721489e-02    1.0144710156e+05
    2.4751318619e-02    1.0142914844e+05
    2.4771906435e-02    1.0141031250e+05
    2.4792486802e-02    1.0139691406e+05
    2.4813055992e-02    1.0138307031e+05
    2.4833614007e-02    1.0136327344e+05
    2.4854162708e-02    1.0134746875e+05
    2.4874702096e-02    1.0132935156e+05
    2.4895232171e-02    1.0131785156e+05
    2.4915752932e-02    1.0130440625e+05
    2.4936262518e-02    1.0129260156e+05
    2.4956764653e-02    1.0128597656e+05
    2.4977253750e-02    1.0128864844e+05
    2.4997735396e-02    1.0129010156e+05
    2.5018205866e-02    1.0128237500e+05
    2.5038668886e-02    1.0128564844e+05
    2.5059120730e-02    1.0128437500e+05
    2.5079563260e-02    1.0129100781e+05
    2.5099996477e-02    1.0130138281e+05
    2.5120420381e-02    1.0131502344e+05
    2.5140833110e-02    1.0133284375e+05
    2.5161236525e-02    1.0134825781e+05
    2.5181630626e-02    1.0136989844e+05
    2.5202017277e-02    1.0139365625e+05
    2.5222390890e-02    1.0141433594e+05
    2.5242757052e-02    1.0143919531e+05
    2.5263112038e-02    1.0146087500e+05
    2.5283459574e-02    1.0148900000e+05
    2.5303795934e-02    1.0151741406e+05
    2.5324124843e-02    1.0155211719e+05
    2.5344440714e-02    1.0157935156e+05
    2.5364749134e-02    1.0160678906e+05
    2.5385048240e-02    1.0163417969e+05
    2.5405339897e-02    1.0166562500e+05
    2.5425618514e-02    1.0169096094e+05
    2.5445887819e-02    1.0171164844e+05
    2.5466147810e-02    1.0173100781e+05
    2.5486400351e-02    1.0175118750e+05
    2.5506639853e-02    1.0176040625e+05
    2.5526873767e-02    1.0176850000e+05
    2.5547094643e-02    1.0177740625e+05
    2.5567308068e-02    1.0177416406e+05
    2.5587510318e-02    1.0176753906e+05
    2.5607703254e-02    1.0175371094e+05
    2.5627886876e-02    1.0173085156e+05
    2.5648061186e-02    1.0170332031e+05
    2.5668226182e-02    1.0167016406e+05
    2.5688380003e-02    1.0164150000e+05
    2.5708526373e-02    1.0159934375e+05
    2.5728661567e-02    1.0155799219e+05
    2.5748789310e-02    1.0150811719e+05
    2.5768904015e-02    1.0145696875e+05
    2.5789011270e-02    1.0139839844e+05
    2.5809109211e-02    1.0133847656e+05
    2.5829195976e-02    1.0128738281e+05
    2.5849273428e-02    1.0123741406e+05
    2.5869343430e-02    1.0119303906e+05
    2.5889402255e-02    1.0115550000e+05
    2.5909451768e-02    1.0112264844e+05
    2.5929493830e-02    1.0110096094e+05
    2.5949522853e-02    1.0108630469e+05
    2.5969544426e-02    1.0108072656e+05
    2.5989556685e-02    1.0107871875e+05
    2.6009559631e-02    1.0108407031e+05
    2.6029553264e-02    1.0109283594e+05
    2.6049537584e-02    1.0111566406e+05
    2.6069512591e-02    1.0114274219e+05
    2.6089478284e-02    1.0117394531e+05
    2.6109432802e-02    1.0120469531e+05
    2.6129379869e-02    1.0123758594e+05
    2.6149315760e-02    1.0126708594e+05
    2.6169244200e-02    1.0129883594e+05
    2.6189163327e-02    1.0132622656e+05
    2.6209073141e-02    1.0135785156e+05
    2.6228975505e-02    1.0138550000e+05
    2.6248866692e-02    1.0141199219e+05
    2.6268748567e-02    1.0143613281e+05
    2.6288621128e-02    1.0145877344e+05
    2.6308484375e-02    1.0147682031e+05
    2.6328338310e-02    1.0149497656e+05
    2.6348184794e-02    1.0150613281e+05
    2.6368021965e-02    1.0152678125e+05
    2.6387847960e-02    1.0154560156e+05
    2.6407664642e-02    1.0156710156e+05
    2.6427472010e-02    1.0158771094e+05
    2.6447271928e-02    1.0160390625e+05
    2.6467062533e-02    1.0162371094e+05
    2.6486843824e-02    1.0164958594e+05
    2.6506617665e-02    1.0167386719e+05
    2.6526380330e-02    1.0169502344e+05
    2.6546133682e-02    1.0171874219e+05
    2.6565877721e-02    1.0174175781e+05
    2.6585612446e-02    1.0175747656e+05
    2.6605339721e-02    1.0177203906e+05
    2.6625057682e-02    1.0179172656e+05
    2.6644766331e-02    1.0180399219e+05
    2.6664465666e-02    1.0181953906e+05
    2.6684155688e-02    1.0183324219e+05
    2.6703836396e-02    1.0184337500e+05
    2.6723509654e-02    1.0185450781e+05
    2.6743173599e-02    1.0185689844e+05
    2.6762828231e-02    1.0185916406e+05
    2.6782475412e-02    1.0186221875e+05
    2.6802113280e-02    1.0186142969e+05
    2.6821739972e-02    1.0185902344e+05
    2.6841359213e-02    1.0185177344e+05
    2.6860967278e-02    1.0184689844e+05
    2.6880569756e-02    1.0184428906e+05
    2.6900164783e-02    1.0183977344e+05
    2.6919748634e-02    1.0183791406e+05
    2.6939325035e-02    1.0183039844e+05
    2.6958892122e-02    1.0182171094e+05
    2.6978449896e-02    1.0181646094e+05
    2.6997998357e-02    1.0180707031e+05
    2.7017539367e-02    1.0180058594e+05
    2.7037071064e-02    1.0179928906e+05
    2.7056595311e-02    1.0179206250e+05
    2.7076110244e-02    1.0178309375e+05
    2.7095617726e-02    1.0177947656e+05
    2.7115115896e-02    1.0177075781e+05
    2.7134604752e-02    1.0176028125e+05
    2.7154086158e-02    1.0174678906e+05
    2.7173558250e-02    1.0174197656e+05
    2.7193021029e-02    1.0173685156e+05
    2.7212476358e-02    1.0172924219e+05
    2.7231922373e-02    1.0171721094e+05
    2.7251357213e-02    1.0171282031e+05
    2.7270786464e-02    1.0170590625e+05
    2.7290204540e-02    1.0169755469e+05
    2.7309613302e-02    1.0168664844e+05
    2.7329014614e-02    1.0168039844e+05
    2.7348404750e-02    1.0167408594e+05
    2.7367785573e-02    1.0166999219e+05
    2.7387158945e-02    1.0166252344e+05
    2.7406521142e-02    1.0165960156e+05
    2.7425874025e-02    1.0165578906e+05
    2.7445219457e-02    1.0165468750e+05
    2.7464553714e-02    1.0164899219e+05
    2.7483878657e-02    1.0164328906e+05
    2.7503194287e-02    1.0163772656e+05
    2.7522502467e-02    1.0163609375e+05
    2.7541799471e-02    1.0163487500e+05
    2.7561087161e-02    1.0163606250e+05
    2.7580365539e-02    1.0163322656e+05
    2.7599634603e-02    1.0162983594e+05
    2.7618894354e-02    1.0163841406e+05
    2.7638144791e-02    1.0164328906e+05
    2.7657385916e-02    1.0164528906e+05
    2.7676619589e-02    1.0164862500e+05
    2.7695843950e-02    1.0165371094e+05
    2.7715058997e-02    1.0165396875e+05
    2.7734262869e-02    1.0165183594e+05
    2.7753459290e-02    1.0165324219e+05
    2.7772648260e-02    1.0165025781e+05
    2.7791827917e-02    1.0165147656e+05
    2.7810998261e-02    1.0166291406e+05
    2.7830159292e-02    1.0167649219e+05
    2.7849311009e-02    1.0168521094e+05
    2.7868455276e-02    1.0168943750e+05
    2.7887590230e-02    1.0168882031e+05
    2.7906717733e-02    1.0168831250e+05
    2.7925835922e-02    1.0169105469e+05
    2.7944946662e-02    1.0169952344e+05
    2.7964048088e-02    1.0170853906e+05
    2.7983140200e-02    1.0171188281e+05
    2.8002224863e-02    1.0171647656e+05
    2.8021300212e-02    1.0171896875e+05
    2.8040368110e-02    1.0172268750e+05
    2.8059426695e-02    1.0173214844e+05
    2.8078475967e-02    1.0173710156e+05
    2.8097519651e-02    1.0173481250e+05
    2.8116554022e-02    1.0173491406e+05
    2.8135580942e-02    1.0174071094e+05
    2.8154598549e-02    1.0174660156e+05
    2.8173606843e-02    1.0175250781e+05
    2.8192607686e-02    1.0175485156e+05
    2.8211599216e-02    1.0175721094e+05
    2.8230583295e-02    1.0175400000e+05
    2.8249559924e-02    1.0175734375e+05
    2.8268527240e-02    1.0176278906e+05
    2.8287487105e-02    1.0176344531e+05
    2.8306435794e-02    1.0176839844e+05
    2.8325378895e-02    1.0176886719e+05
    2.8344312683e-02    1.0177034375e+05
    2.8363237157e-02    1.0177164844e+05
    2.8382156044e-02    1.0177288281e+05
    2.8401065618e-02    1.0177622656e+05
    2.8419965878e-02    1.0177133594e+05
    2.8438858688e-02    1.0177162500e+05
    2.8457742184e-02    1.0177178125e+05
    2.8476616368e-02    1.0177314844e+05
    2.8495483100e-02    1.0177341406e+05
    2.8514338657e-02    1.0177839844e+05
    2.8533160686e-02    1.0178344531e+05
    2.8551930562e-02    1.0177672656e+05
    2.8570635244e-02    1.0177792969e+05
    2.8589271009e-02    1.0177325781e+05
    2.8607837856e-02    1.0177310156e+05
    2.8626350686e-02    1.0177540625e+05
    2.8644818813e-02    1.0178697656e+05
    2.8663259000e-02    1.0178725781e+05
    2.8681686148e-02    1.0178746875e+05
    2.8700113297e-02    1.0178877344e+05
    2.8718546033e-02    1.0178996875e+05
    2.8736986220e-02    1.0179228125e+05
    2.8755431995e-02    1.0179227344e+05
    2.8773877770e-02    1.0178619531e+05
    2.8792314231e-02    1.0178708594e+05
    2.8810730204e-02    1.0179382031e+05
    2.8829116374e-02    1.0179869531e+05
    2.8847465292e-02    1.0180030469e+05
    2.8865773231e-02    1.0180200781e+05
    2.8884036466e-02    1.0180381250e+05
    2.8902258724e-02    1.0180786719e+05
    2.8920443729e-02    1.0180718750e+05
    2.8938598931e-02    1.0180980469e+05
    2.8956729919e-02    1.0180993750e+05
    2.8974846005e-02    1.0180682031e+05
    2.8992949054e-02    1.0180789844e+05
    2.9011042789e-02    1.0181344531e+05
    2.9029129073e-02    1.0181475000e+05
    2.9047204182e-02    1.0181605469e+05
    2.9065268114e-02    1.0181500000e+05
    2.9083315283e-02    1.0181628125e+05
    2.9101338238e-02    1.0182025000e+05
    2.9119335115e-02    1.0182185156e+05
    2.9137304053e-02    1.0182346094e+05
    2.9155241325e-02    1.0182378906e+05
    2.9173148796e-02    1.0182403906e+05
    2.9191024601e-02    1.0182575781e+05
    2.9208874330e-02    1.0182712500e+05
    2.9226697981e-02    1.0182691406e+05
    2.9244501144e-02    1.0182809375e+05
    2.9262285680e-02    1.0182600000e+05
    2.9280053452e-02    1.0182477344e+05
    2.9297806323e-02    1.0183508594e+05
    2.9315544292e-02    1.0183750000e+05
    2.9333265498e-02    1.0182956250e+05
    2.9350971803e-02    1.0183083594e+05
    2.9368655756e-02    1.0183339844e+05
    2.9386319220e-02    1.0183938281e+05
    2.9403960332e-02    1.0183987500e+05
    2.9421577230e-02    1.0184277344e+05
    2.9439168051e-02    1.0184097656e+05
    2.9456734657e-02    1.0184141406e+05
    2.9474277049e-02    1.0184525000e+05
    2.9491795227e-02    1.0184902344e+05
    2.9509292915e-02    1.0184616406e+05
    2.9526771978e-02    1.0184764844e+05
    2.9544232413e-02    1.0185017969e+05
    2.9561674222e-02    1.0185022656e+05
    2.9579099268e-02    1.0185022656e+05
    2.9596509412e-02    1.0185246875e+05
    2.9613900930e-02    1.0185347656e+05
    2.9631273821e-02    1.0185416406e+05
    2.9648626223e-02    1.0184883594e+05
    2.9665958136e-02    1.0184666406e+05
    2.9683271423e-02    1.0184324219e+05
    2.9700560495e-02    1.0184600781e+05
    2.9717829078e-02    1.0185200000e+05
    2.9735075310e-02    1.0185365625e+05
    2.9752301052e-02    1.0185407031e+05
    2.9769508168e-02    1.0184953906e+05
    2.9786696658e-02    1.0184280469e+05
    2.9803866521e-02    1.0184503906e+05
    2.9821017757e-02    1.0184610156e+05
    2.9838152230e-02    1.0184230469e+05
    2.9855269939e-02    1.0184208594e+05
    2.9872370884e-02    1.0184196094e+05
    2.9889453202e-02    1.0184183594e+05
    2.9906518757e-02    1.0184406250e+05
    2.9923565686e-02    1.0184413281e+05
    2.9940593988e-02    1.0184430469e+05
    2.9957601801e-02    1.0184890625e+05
    2.9974590987e-02    1.0184347656e+05
    2.9991561547e-02    1.0184246094e+05
    3.0008511618e-02    1.0184485156e+05
    3.0025444925e-02    1.0184502344e+05
    3.0042361468e-02    1.0184746094e+05
    3.0059259385e-02    1.0184660156e+05
    3.0076142401e-02    1.0184803906e+05
    3.0093006790e-02    1.0184846094e+05
    3.0109854415e-02    1.0185338281e+05
    3.0126683414e-02    1.0185608594e+05
    3.0143497512e-02    1.0185441406e+05
    3.0160292983e-02    1.0185727344e+05
    3.0177071691e-02    1.0185802344e+05
    3.0193833634e-02    1.0186364844e+05
    3.0210576952e-02    1.0186589844e+05
    3.0227303505e-02    1.0186596094e+05
    3.0244011432e-02    1.0186837500e+05
    3.0260702595e-02    1.0186859375e+05
    3.0277376994e-02    1.0186896094e+05
    3.0294034630e-02    1.0187391406e+05
    3.0310675502e-02    1.0187562500e+05
    3.0327299610e-02    1.0188460156e+05
    3.0343905091e-02    1.0188682031e+05
    3.0360495672e-02    1.0188807031e+05
    3.0377071351e-02    1.0189186719e+05
    3.0393628404e-02    1.0189911719e+05
    3.0410168692e-02    1.0190688281e+05
    3.0426690355e-02    1.0190767969e+05
    3.0443195254e-02    1.0191067969e+05
    3.0459685251e-02    1.0191362500e+05
    3.0476156622e-02    1.0191522656e+05
    3.0492611229e-02    1.0191684375e+05
    3.0509050936e-02    1.0192443750e+05
    3.0525473878e-02    1.0192738281e+05
    3.0541881919e-02    1.0193030469e+05
    3.0558273196e-02    1.0193091406e+05
    3.0574647710e-02    1.0193392969e+05
    3.0591005459e-02    1.0193843750e+05
    3.0607348308e-02    1.0194315625e+05
    3.0623674393e-02    1.0194696094e+05
    3.0639985576e-02    1.0195784375e+05
    3.0656279996e-02    1.0195684375e+05
    3.0672557652e-02    1.0195800000e+05
    3.0688818544e-02    1.0196121094e+05
    3.0705062672e-02    1.0195707031e+05
    3.0721291900e-02    1.0195947656e+05
    3.0737506226e-02    1.0195932031e+05
    3.0753703788e-02    1.0195543750e+05
    3.0769886449e-02    1.0195228125e+05
    3.0786054209e-02    1.0195471875e+05
    3.0802207068e-02    1.0195596094e+05
    3.0818343163e-02    1.0195022656e+05
    3.0834466219e-02    1.0195338281e+05
    3.0850572512e-02    1.0195400000e+05
    3.0866663903e-02    1.0194844531e+05
    3.0882738531e-02    1.0194383594e+05
    3.0898798257e-02    1.0193969531e+05
    3.0914843082e-02    1.0193413281e+05
    3.0930871144e-02    1.0193296094e+05
    3.0946886167e-02    1.0193393750e+05
    3.0962884426e-02    1.0193021875e+05
    3.0978867784e-02    1.0192425000e+05
    3.0994836241e-02    1.0192369531e+05
    3.1010789797e-02    1.0191840625e+05
    3.1026728451e-02    1.0191290625e+05
    3.1042650342e-02    1.0191192969e+05
    3.1058559194e-02    1.0190966406e+05
    3.1074455008e-02    1.0190732031e+05
    3.1090334058e-02    1.0190275781e+05
    3.1106200069e-02    1.0190506250e+05
    3.1122051179e-02    1.0190296875e+05
    3.1137887388e-02    1.0190222656e+05
    3.1153710559e-02    1.0190527344e+05
    3.1169516966e-02    1.0190260156e+05
    3.1185310334e-02    1.0190241406e+05
    3.1201090664e-02    1.0190349219e+05
    3.1216854230e-02    1.0190358594e+05
    3.1232602894e-02    1.0190266406e+05
    3.1248336658e-02    1.0189961719e+05
    3.1264055520e-02    1.0190571094e+05
    3.1279761344e-02    1.0190539844e+05
    3.1295452267e-02    1.0190747656e+05
    3.1311132014e-02    1.0190728125e+05
    3.1326796860e-02    1.0190719531e+05
    3.1342446804e-02    1.0190708594e+05
    3.1358085573e-02    1.0190927344e+05
    3.1373709440e-02    1.0190680469e+05
    3.1389318407e-02    1.0190655469e+05
    3.1404916197e-02    1.0190397656e+05
    3.1420499086e-02    1.0190389844e+05
    3.1436067075e-02    1.0190874219e+05
    3.1451620162e-02    1.0191144531e+05
    3.1467158347e-02    1.0191210156e+05
    3.1482685357e-02    1.0191621094e+05
    3.1498193741e-02    1.0191608594e+05
    3.1513694674e-02    1.0192185156e+05
    3.1529176980e-02    1.0192302344e+05
    3.1544648111e-02    1.0192761719e+05
    3.1560108066e-02    1.0192435156e+05
    3.1575553119e-02    1.0192777344e+05
    3.1590986997e-02    1.0193034375e+05
    3.1606405973e-02    1.0193194531e+05
    3.1621813774e-02    1.0193371875e+05
    3.1637206674e-02    1.0194016406e+05
    3.1652588397e-02    1.0194707031e+05
    3.1667951494e-02    1.0194700781e+05
    3.1683307141e-02    1.0194914844e+05
    3.1698647887e-02    1.0195233594e+05
    3.1713977456e-02    1.0194621094e+05
    3.1729292125e-02    1.0195271875e+05
    3.1744595617e-02    1.0195966406e+05
    3.1759884208e-02    1.0196322656e+05
    3.1775161624e-02    1.0196581250e+05
    3.1790427864e-02    1.0196961719e+05
    3.1805675477e-02    1.0197241406e+05
    3.1820915639e-02    1.0197539844e+05
    3.1836140901e-02    1.0198444531e+05
    3.1851354986e-02    1.0199016406e+05
    3.1866557896e-02    1.0199528125e+05
    3.1881745905e-02    1.0200766406e+05
    3.1896922737e-02    1.0201353906e+05
    3.1912088394e-02    1.0201750781e+05
    3.1927239150e-02    1.0203093750e+05
    3.1942378730e-02    1.0203896875e+05
    3.1957507133e-02    1.0204502344e+05
    3.1972620636e-02    1.0206166406e+05
    3.1987726688e-02    1.0206702344e+05
    3.2002814114e-02    1.0207353125e+05
    3.2017890364e-02    1.0208127344e+05
    3.2032959163e-02    1.0208907031e+05
    3.2048013061e-02    1.0209580469e+05
    3.2063052058e-02    1.0210371875e+05
    3.2078083605e-02    1.0211052344e+05
    3.2093103975e-02    1.0211622656e+05
    3.2108109444e-02    1.0212293750e+05
    3.2123107463e-02    1.0212941406e+05
    3.2138090581e-02    1.0213333594e+05
    3.2153062522e-02    1.0213132031e+05
    3.2168023288e-02    1.0213581250e+05
    3.2182972878e-02    1.0214119531e+05
    3.2197911292e-02    1.0213818750e+05
    3.2212834805e-02    1.0214406250e+05
    3.2227750868e-02    1.0214735156e+05
    3.2242652029e-02    1.0214122656e+05
    3.2257542014e-02    1.0214742969e+05
    3.2272424549e-02    1.0215110156e+05
    3.2287292182e-02    1.0215228125e+05
    3.2302148640e-02    1.0215543750e+05
    3.2316997647e-02    1.0214896094e+05
    3.2331831753e-02    1.0215121094e+05
    3.2346658409e-02    1.0214949219e+05
    3.2361470163e-02    1.0214158594e+05
    3.2376270741e-02    1.0214238281e+05
    3.2391063869e-02    1.0213600000e+05
    3.2405842096e-02    1.0213489844e+05
    3.2420612872e-02    1.0213346875e+05
    3.2435368747e-02    1.0212372656e+05
    3.2450113446e-02    1.0212171094e+05
    3.2464850694e-02    1.0212061719e+05
    3.2479573041e-02    1.0211940625e+05
    3.2494287938e-02    1.0211682031e+05
    3.2508991659e-02    1.0211403125e+05
    3.2523684204e-02    1.0210283594e+05
    3.2538365573e-02    1.0210046094e+05
    3.2553035766e-02    1.0209771094e+05
    3.2567698509e-02    1.0209028125e+05
    3.2582346350e-02    1.0208235156e+05
    3.2596986741e-02    1.0207671094e+05
    3.2611619681e-02    1.0207328906e+05
    3.2626237720e-02    1.0207210156e+05
    3.2640848309e-02    1.0206639844e+05
    3.2655447721e-02    1.0206297656e+05
    3.2670035958e-02    1.0205966406e+05
    3.2684613019e-02    1.0205643750e+05
    3.2699178904e-02    1.0205427344e+05
    3.2713737339e-02    1.0204967969e+05
    3.2728284597e-02    1.0204611719e+05
    3.2742820680e-02    1.0204355469e+05
    3.2757349312e-02    1.0204091406e+05
    3.2771866769e-02    1.0203006250e+05
    3.2786373049e-02    1.0202271875e+05
    3.2800871879e-02    1.0201760156e+05
    3.2815355808e-02    1.0201846875e+05
    3.2829832286e-02    1.0202284375e+05
    3.2844301313e-02    1.0201837500e+05
    3.2858755440e-02    1.0201627344e+05
    3.2873202115e-02    1.0201443750e+05
    3.2887637615e-02    1.0201053906e+05
    3.2902065665e-02    1.0201615625e+05
    3.2916482538e-02    1.0201613281e+05
    3.2930891961e-02    1.0201389844e+05
    3.2945290208e-02    1.0200910156e+05
    3.2959677279e-02    1.0200196094e+05
    3.2974056900e-02    1.0199709375e+05
    3.2988425344e-02    1.0199903906e+05
    3.3002786338e-02    1.0200383594e+05
    3.3017136157e-02    1.0200196094e+05
    3.3031478524e-02    1.0200268750e+05
    3.3045809716e-02    1.0200028906e+05
    3.3060129732e-02    1.0200736719e+05
    3.3074442297e-02    1.0200660156e+05
    3.3088747412e-02    1.0200602344e+05
    3.3103041351e-02    1.0200537500e+05
    3.3117324114e-02    1.0200697656e+05
    3.3131599426e-02    1.0200621094e+05
    3.3145863563e-02    1.0200296094e+05
    3.3160120249e-02    1.0200200781e+05
    3.3174365759e-02    1.0200231250e+05
    3.3188603818e-02    1.0200153125e+05
    3.3202830702e-02    1.0200091406e+05
    3.3217050135e-02    1.0200171094e+05
    3.3231258392e-02    1.0200397656e+05
    3.3245459199e-02    1.0200752344e+05
    3.3259648830e-02    1.0200883594e+05
    3.3273831010e-02    1.0200911719e+05
    3.3288005739e-02    1.0201041406e+05
    3.3302169293e-02    1.0200133594e+05
    3.3316325396e-02    1.0200368750e+05
    3.3330474049e-02    1.0200271094e+05
    3.3344611526e-02    1.0200972656e+05
    3.3358741552e-02    1.0201247656e+05
    3.3372864127e-02    1.0201078906e+05
    3.3386975527e-02    1.0201380469e+05
    3.3401079476e-02    1.0201464844e+05
    3.3415172249e-02    1.0201327344e+05
    3.3429257572e-02    1.0201652344e+05
    3.3443335444e-02    1.0201633594e+05
    3.3457405865e-02    1.0201610156e+05
    3.3471468836e-02    1.0201925000e+05
    3.3485524356e-02    1.0201781250e+05
    3.3499568701e-02    1.0201978906e+05
    3.3513605595e-02    1.0202641406e+05
    3.3527631313e-02    1.0201910156e+05
    3.3541653305e-02    1.0202083594e+05
    3.3555664122e-02    1.0202014844e+05
    3.3569667488e-02    1.0202167969e+05
    3.3583663404e-02    1.0202197656e+05
    3.3597648144e-02    1.0202221094e+05
    3.3611625433e-02    1.0202233594e+05
    3.3625595272e-02    1.0201777344e+05
    3.3639557660e-02    1.0201537500e+05
    3.3653512597e-02    1.0201533594e+05
    3.3667460084e-02    1.0201883594e+05
    3.3681396395e-02    1.0202266406e+05
    3.3695328981e-02    1.0202539844e+05
    3.3709254116e-02    1.0202582031e+05
    3.3723168075e-02    1.0202402344e+05
    3.3737078309e-02    1.0202562500e+05
    3.3750977367e-02    1.0202608594e+05
    3.3764872700e-02    1.0202542969e+05
    3.3778760582e-02    1.0202596094e+05
    3.3792637289e-02    1.0202646094e+05
    3.3806510270e-02    1.0202693750e+05
    3.3820372075e-02    1.0202733594e+05
    3.3834230155e-02    1.0202997656e+05
    3.3848077059e-02    1.0202808594e+05
    3.3861916512e-02    1.0203058594e+05
    3.3875752240e-02    1.0202613281e+05
    3.3889576793e-02    1.0202616406e+05
    3.3903393894e-02    1.0202292969e+05
    3.3917203546e-02    1.0202428906e+05
    3.3931009471e-02    1.0202571875e+05
    3.3944804221e-02    1.0202714844e+05
    3.3958595246e-02    1.0203200000e+05
    3.3972378820e-02    1.0203130469e+05
    3.3986151218e-02    1.0202811719e+05
    3.3999919891e-02    1.0202389844e+05
    3.4013681114e-02    1.0202409375e+05
    3.4027434886e-02    1.0202896094e+05
    3.4041177481e-02    1.0203127344e+05
    3.4054916352e-02    1.0203117969e+05
    3.4068647772e-02    1.0202421875e+05
    3.4082375467e-02    1.0202166406e+05
    3.4096091986e-02    1.0202128906e+05
    3.4109804779e-02    1.0202321094e+05
    3.4123510122e-02    1.0202058594e+05
    3.4137208015e-02    1.0202252344e+05
    3.4150898457e-02    1.0201991406e+05
    3.4164581448e-02    1.0201950781e+05
    3.4178260714e-02    1.0202006250e+05
    3.4191932529e-02    1.0201819531e+05
    3.4205596894e-02    1.0200816406e+05
    3.4219253808e-02    1.0200944531e+05
    3.4232903272e-02    1.0200616406e+05
    3.4246545285e-02    1.0200993750e+05
    3.4260183573e-02    1.0201472656e+05
    3.4273810685e-02    1.0201275781e+05
    3.4287434071e-02    1.0200721875e+05
    3.4301050007e-02    1.0200296094e+05
    3.4314658493e-02    1.0200081250e+05
    3.4328263253e-02    1.0200203906e+05
    3.4341860563e-02    1.0199984375e+05
    3.4355450422e-02    1.0199882031e+05
    3.4369036555e-02    1.0199891406e+05
    3.4382611513e-02    1.0199564844e+05
    3.4396182746e-02    1.0200052344e+05
    3.4409742802e-02    1.0200286719e+05
    3.4423299134e-02    1.0199259375e+05
    3.4436848015e-02    1.0199131250e+05
    3.4450393170e-02    1.0198762500e+05
    3.4463927150e-02    1.0198844531e+05
    3.4477461129e-02    1.0198685156e+05
    3.4490987659e-02    1.0198405469e+05
    3.4504506737e-02    1.0198110156e+05
    3.4518022090e-02    1.0197694531e+05
    3.4531529993e-02    1.0197403906e+05
    3.4545030445e-02    1.0197575781e+05
    3.4558523446e-02    1.0197164844e+05
    3.4572008997e-02    1.0196971875e+05
    3.4585487098e-02    1.0197000000e+05
    3.4598957747e-02    1.0197021094e+05
    3.4612424672e-02    1.0196374219e+05
    3.4625884145e-02    1.0196152344e+05
    3.4639336169e-02    1.0195738281e+05
    3.4652780741e-02    1.0196262500e+05
    3.4666225314e-02    1.0196342969e+05
    3.4679658711e-02    1.0195975781e+05
    3.4693088382e-02    1.0195946094e+05
    3.4706510603e-02    1.0195580469e+05
    3.4719929099e-02    1.0195078906e+05
    3.4733340144e-02    1.0194789844e+05
    3.4746743739e-02    1.0194971094e+05
    3.4760143608e-02    1.0195040625e+05
    3.4773536026e-02    1.0194752344e+05
    3.4786924720e-02    1.0194469531e+05
    3.4800305963e-02    1.0194175781e+05
    3.4813679755e-02    1.0193891406e+05
    3.4827046096e-02    1.0193361719e+05
    3.4840408713e-02    1.0193078125e+05
    3.4853763878e-02    1.0194060156e+05
    3.4867111593e-02    1.0193678125e+05
    3.4880455583e-02    1.0193628906e+05
    3.4893795848e-02    1.0193353906e+05
    3.4907124937e-02    1.0192957031e+05
    3.4920454025e-02    1.0192534375e+05
    3.4933775663e-02    1.0192363281e+05
    3.4947093576e-02    1.0192771094e+05
    3.4960404038e-02    1.0192246094e+05
    3.4973710775e-02    1.0191838281e+05
    3.4987010062e-02    1.0191672656e+05
endcurve
