Curveplot
LS-DYNA keyword deck by LS-PrePost                          
Time
Pressure
Defined Connection
Pressure @ 5 #pts=12001
* Minval=     6.8419734375e+04 at time=         0.0069698966
* Maxval=     5.4164912500e+05 at time=         0.0020996472
    0.0000000000e+00    1.0120000000e+05
    9.9485332612e-06    1.0120000000e+05
    1.9988623535e-05    1.0120000000e+05
    2.9974982681e-05    1.0120000000e+05
    3.9968475903e-05    1.0120000000e+05
    4.9964641221e-05    1.0120000000e+05
    5.9981401137e-05    1.0120000000e+05
    6.9966816227e-05    1.0120000000e+05
    7.9938989074e-05    1.0120000000e+05
    8.9962508355e-05    1.0120000000e+05
    9.9948483694e-05    1.0120000000e+05
    1.0995378398e-04    1.0120000000e+05
    1.1996556714e-04    1.0120000000e+05
    1.2997062004e-04    1.0120000000e+05
    1.3995663903e-04    1.0120000000e+05
    1.4999210543e-04    1.0120000000e+05
    1.5998588060e-04    1.0120000000e+05
    1.6992508608e-04    1.0120000000e+05
    1.7996835231e-04    1.0120000000e+05
    1.8993628328e-04    1.0120000000e+05
    1.9999317010e-04    1.0120000000e+05
    2.0995350496e-04    1.0120000000e+05
    2.1998734155e-04    1.0120000000e+05
    2.2999582870e-04    1.0120000000e+05
    2.3996761593e-04    1.0120000000e+05
    2.4997972650e-04    1.0120000000e+05
    2.5992124574e-04    1.0120000000e+05
    2.6998316753e-04    1.0120000000e+05
    2.7996828430e-04    1.0120000000e+05
    2.8997167828e-04    1.0120000000e+05
    2.9999201070e-04    1.0120000000e+05
    3.0992407119e-04    1.0120000000e+05
    3.1997065526e-04    1.0120000000e+05
    3.2992326305e-04    1.0120000000e+05
    3.3998923027e-04    1.0120000000e+05
    3.4995557508e-04    1.0120000000e+05
    3.5992590711e-04    1.0120000000e+05
    3.6989818909e-04    1.0120000000e+05
    3.7998225889e-04    1.0120000000e+05
    3.8995448267e-04    1.0120000000e+05
    3.9992172970e-04    1.0120000000e+05
    4.0988498949e-04    1.0120000000e+05
    4.1995817446e-04    1.0120000000e+05
    4.2990702786e-04    1.0120000000e+05
    4.3996388558e-04    1.0120000000e+05
    4.4988794252e-04    1.0120000000e+05
    4.5991834486e-04    1.0120000000e+05
    4.6993646538e-04    1.0120000000e+05
    4.7993828775e-04    1.0120000000e+05
    4.8992183292e-04    1.0120000000e+05
    4.9988494720e-04    1.0120000000e+05
    5.0995132187e-04    1.0120000000e+05
    5.1999802236e-04    1.0120000000e+05
    5.2988983225e-04    1.0120000000e+05
    5.3988478612e-04    1.0120000000e+05
    5.4998480482e-04    1.0120000000e+05
    5.5992178386e-04    1.0120000000e+05
    5.6996196508e-04    1.0120000000e+05
    5.7996663963e-04    1.0120000000e+05
    5.8993883431e-04    1.0120000000e+05
    5.9987336863e-04    1.0120000000e+05
    6.0990988277e-04    1.0120000000e+05
    6.1990640825e-04    1.0120000000e+05
    6.2986044213e-04    1.0120000000e+05
    6.3991575735e-04    1.0120000000e+05
    6.4992607804e-04    1.0120000000e+05
    6.5988529241e-04    1.0120000000e+05
    6.6994823283e-04    1.0120000000e+05
    6.7996070720e-04    1.0120000000e+05
    6.8991992157e-04    1.0120000000e+05
    6.9997826358e-04    1.0120000000e+05
    7.0998026058e-04    1.0120000000e+05
    7.1992294397e-04    1.0120000000e+05
    7.2996335803e-04    1.0120000000e+05
    7.3994131526e-04    1.0120000000e+05
    7.4984924868e-04    1.0120000000e+05
    7.5985299191e-04    1.0120000000e+05
    7.6995842392e-04    1.0120000000e+05
    7.7999453060e-04    1.0120000000e+05
    7.8995793592e-04    1.0120000000e+05
    7.9984508920e-04    1.0120000000e+05
    8.0999842612e-04    1.0120000000e+05
    8.1990048056e-04    1.0120000000e+05
    8.2989543444e-04    1.0120000000e+05
    8.3998439368e-04    1.0120000000e+05
    8.4998953389e-04    1.0120000000e+05
    8.5990718799e-04    1.0120000000e+05
    8.6991657736e-04    1.0120000000e+05
    8.7983434787e-04    1.0120000000e+05
    8.8984309696e-04    1.0120000000e+05
    8.9994078735e-04    1.0120000000e+05
    9.0994156199e-04    1.0120000000e+05
    9.1984652681e-04    1.0120000000e+05
    9.2984078219e-04    1.0120000000e+05
    9.3992560869e-04    1.0120000000e+05
    9.4990583602e-04    1.0120000000e+05
    9.5997605240e-04    1.0120000000e+05
    9.6993707120e-04    1.0120000000e+05
    9.7998732235e-04    1.0120000000e+05
    9.8992430139e-04    1.0120000000e+05
    9.9994940683e-04    1.0120000000e+05
    1.0098567000e-03    1.0120000000e+05
    1.0198513046e-03    1.0120000000e+05
    1.0299348505e-03    1.0120000000e+05
    1.0398956947e-03    1.0120000000e+05
    1.0499440832e-03    1.0120000000e+05
    1.0598651133e-03    1.0120000000e+05
    1.0698732221e-03    1.0120000000e+05
    1.0799695738e-03    1.0120000000e+05
    1.0899332119e-03    1.0120000000e+05
    1.0999838123e-03    1.0120000000e+05
    1.1098969262e-03    1.0120000000e+05
    1.1198968859e-03    1.0120000000e+05
    1.1299836915e-03    1.0120000000e+05
    1.1399283540e-03    1.0120000000e+05
    1.1499582324e-03    1.0120000000e+05
    1.1598407291e-03    1.0120000000e+05
    1.1698097223e-03    1.0120000000e+05
    1.1798660271e-03    1.0120000000e+05
    1.1897679651e-03    1.0120000000e+05
    1.1999992421e-03    1.0120000000e+05
    1.2098271400e-03    1.0120000000e+05
    1.2199897319e-03    1.0120000000e+05
    1.2299910886e-03    1.0120000000e+05
    1.2398269027e-03    1.0120000000e+05
    1.2497464195e-03    1.0120000000e+05
    1.2597528985e-03    1.0120000000e+05
    1.2698469218e-03    1.0120000000e+05
    1.2797678355e-03    1.0120000000e+05
    1.2897747802e-03    1.0120000000e+05
    1.2998695020e-03    1.0120000000e+05
    1.3097850606e-03    1.0120000000e+05
    1.3197864173e-03    1.0120000000e+05
    1.3298756676e-03    1.0120000000e+05
    1.3397784205e-03    1.0120000000e+05
    1.3497674372e-03    1.0120000000e+05
    1.3598442310e-03    1.0120000000e+05
    1.3697271934e-03    1.0120000000e+05
    1.3799826847e-03    1.0120000000e+05
    1.3897538884e-03    1.0120000000e+05
    1.3999009971e-03    1.0120000000e+05
    1.4098458923e-03    1.0120000000e+05
    1.4198785648e-03    1.0120000000e+05
    1.4297018060e-03    1.0120000000e+05
    1.4399131760e-03    1.0120000000e+05
    1.4499130193e-03    1.0120000000e+05
    1.4596958645e-03    1.0120000000e+05
    1.4698723098e-03    1.0120000000e+05
    1.4798250049e-03    1.0120000000e+05
    1.4898733934e-03    1.0120000000e+05
    1.4996948885e-03    1.0120000000e+05
    1.5099250013e-03    1.0120000000e+05
    1.5199261252e-03    1.0120000000e+05
    1.5296912752e-03    1.0120000000e+05
    1.5398736577e-03    1.0120000000e+05
    1.5498180874e-03    1.0120000000e+05
    1.5598532045e-03    1.0120000000e+05
    1.5699812211e-03    1.0120000000e+05
    1.5798620880e-03    1.0120000000e+05
    1.5898331767e-03    1.0120000000e+05
    1.5998968156e-03    1.0120000000e+05
    1.6097031767e-03    1.0120000000e+05
    1.6199549427e-03    1.0120000000e+05
    1.6299468698e-03    1.0120000000e+05
    1.6396711580e-03    1.0120000000e+05
    1.6498499317e-03    1.0120000000e+05
    1.6597509384e-03    1.0120000000e+05
    1.6697508981e-03    1.0120000000e+05
    1.6798489960e-03    1.0120000000e+05
    1.6896659508e-03    1.0120000000e+05
    1.6999590443e-03    1.0120000000e+05
    1.7099680845e-03    1.0120000000e+05
    1.7196839908e-03    1.0120000000e+05
    1.7298867460e-03    1.0120000000e+05
    1.7397935735e-03    1.0120000000e+05
    1.7497974914e-03    1.0120000000e+05
    1.7599008279e-03    1.0120000000e+05
    1.7696956638e-03    1.0120000000e+05
    1.7795865424e-03    1.0120000000e+05
    1.7899906961e-03    1.0120000000e+05
    1.7996628303e-03    1.0120000000e+05
    1.8098574365e-03    1.0120000000e+05
    1.8197268946e-03    1.0120000000e+05
    1.8296923954e-03    1.0120000000e+05
    1.8397226231e-03    1.0120000000e+05
    1.8498032587e-03    1.0120000000e+05
    1.8599281320e-03    1.0120000000e+05
    1.8696436891e-03    1.0120000000e+05
    1.8798378296e-03    1.0120000000e+05
    1.8895912217e-03    1.0120000000e+05
    1.8998011947e-03    1.0120000000e+05
    1.9095916068e-03    1.0120000000e+05
    1.9198072841e-03    1.0120000000e+05
    1.9295917591e-03    1.0120000000e+05
    1.9398058066e-03    1.0120000000e+05
    1.9495590823e-03    1.0120000000e+05
    1.9597683568e-03    1.0120000000e+05
    1.9699910190e-03    1.0120000000e+05
    1.9797254354e-03    1.0120000000e+05
    1.9899359904e-03    1.0120000000e+05
    1.9996790215e-03    1.0120000000e+05
    2.0098702516e-03    1.0120000000e+05
    2.0195813850e-03    1.0120000000e+05
    2.0298091695e-03    1.0120000000e+05
    2.0395694301e-03    1.0120000000e+05
    2.0497362129e-03    1.0120000000e+05
    2.0599081181e-03    1.0120000000e+05
    2.0697161090e-03    1.0120000000e+05
    2.0799592603e-03    1.0120000000e+05
    2.0897872746e-03    1.0120000781e+05
    2.0996471867e-03    5.4164912500e+05
    2.1099427249e-03    5.3209325000e+05
    2.1198478062e-03    5.2243859375e+05
    2.1297533531e-03    5.1304409375e+05
    2.1396724042e-03    5.0388634375e+05
    2.1496114787e-03    4.9496390625e+05
    2.1599873435e-03    4.8589309375e+05
    2.1699271165e-03    4.7745375000e+05
    2.1798631642e-03    4.6924734375e+05
    2.1897866391e-03    4.6126584375e+05
    2.1996756550e-03    4.5351509375e+05
    2.2099881899e-03    4.4565487500e+05
    2.2198108491e-03    4.3836278125e+05
    2.2295895033e-03    4.3128921875e+05
    2.2397530265e-03    4.2412834375e+05
    2.2498352919e-03    4.1721146875e+05
    2.2598330397e-03    4.1052878125e+05
    2.2697474342e-03    4.0406990625e+05
    2.2795801051e-03    3.9782484375e+05
    2.2897548042e-03    3.9152650000e+05
    2.2998433560e-03    3.8544087500e+05
    2.3098471574e-03    3.7955712500e+05
    2.3197683040e-03    3.7386640625e+05
    2.3296074942e-03    3.6836062500e+05
    2.3397707846e-03    3.6281284375e+05
    2.3498476949e-03    3.5744828125e+05
    2.3598393891e-03    3.5225937500e+05
    2.3697474971e-03    3.4723653125e+05
    2.3799648043e-03    3.4218159375e+05
    2.3897057399e-03    3.3747796875e+05
    2.3997514509e-03    3.3274056250e+05
    2.4097114801e-03    3.2815184375e+05
    2.4199651089e-03    3.2353903125e+05
    2.4297537748e-03    3.1923803125e+05
    2.4398313835e-03    3.1490803125e+05
    2.4498209823e-03    3.1071215625e+05
    2.4597237352e-03    3.0664696875e+05
    2.4699028581e-03    3.0256215625e+05
    2.4799904786e-03    2.9860521875e+05
    2.4899879936e-03    2.9477362500e+05
    2.4998961017e-03    2.9106059375e+05
    2.5097155012e-03    2.8746053125e+05
    2.5197928771e-03    2.8384843750e+05
    2.5297768880e-03    2.8035343750e+05
    2.5396689307e-03    2.7696871875e+05
    2.5498056784e-03    2.7357534375e+05
    2.5598455686e-03    2.7028712500e+05
    2.5697888341e-03    2.6709965625e+05
    2.5799630675e-03    2.6390587500e+05
    2.5897119194e-03    2.6090626562e+05
    2.5996870827e-03    2.5789689062e+05
    2.6098780800e-03    2.5488425000e+05
    2.6199636050e-03    2.5196348438e+05
    2.6299431920e-03    2.4913151562e+05
    2.6398177724e-03    2.4638862500e+05
    2.6498911902e-03    2.4365095312e+05
    2.6598530822e-03    2.4100143750e+05
    2.6697048452e-03    2.3843768750e+05
    2.6797391474e-03    2.3588054688e+05
    2.6899466757e-03    2.3333006250e+05
    2.6997439563e-03    2.3092732812e+05
    2.7099903673e-03    2.2845975000e+05
    2.7198265307e-03    2.2613382812e+05
    2.7298142668e-03    2.2381542188e+05
    2.7399426326e-03    2.2150917188e+05
    2.7499317657e-03    2.1928037500e+05
    2.7597812004e-03    2.1712854688e+05
    2.7697507758e-03    2.1499532812e+05
    2.7798276860e-03    2.1288120312e+05
    2.7899986599e-03    2.1078704688e+05
    2.7997542638e-03    2.0881310938e+05
    2.8098367620e-03    2.0680707812e+05
    2.8199783992e-03    2.0482504688e+05
    2.8299288824e-03    2.0291643750e+05
    2.8399149887e-03    2.0103779688e+05
    2.8499187902e-03    1.9919279688e+05
    2.8599214274e-03    1.9738345312e+05
    2.8699017130e-03    1.9561092188e+05
    2.8798365965e-03    1.9387581250e+05
    2.8899034951e-03    1.9214592188e+05
    2.8998581693e-03    1.9046318750e+05
    2.9098570812e-03    1.8880223438e+05
    2.9198385309e-03    1.8717468750e+05
    2.9299033340e-03    1.8556426562e+05
    2.9399350751e-03    1.8398801562e+05
    2.9499367811e-03    1.8244279688e+05
    2.9599394184e-03    1.8092207812e+05
    2.9699255247e-03    1.7942789062e+05
    2.9799824115e-03    1.7795214062e+05
    2.9899426736e-03    1.7651626562e+05
    2.9998994432e-03    1.7510517188e+05
    3.0099214055e-03    1.7370921875e+05
    3.0199617613e-03    1.7233150000e+05
    3.0298880301e-03    1.7099056250e+05
    3.0398759991e-03    1.6966253125e+05
    3.0499265995e-03    1.6834943750e+05
    3.0599511229e-03    1.6706185938e+05
    3.0698452611e-03    1.6581051562e+05
    3.0799587257e-03    1.6455173438e+05
    3.0898181722e-03    1.6334460938e+05
    3.0999351293e-03    1.6212490625e+05
    3.1099950429e-03    1.6093100000e+05
    3.1198109500e-03    1.5978400000e+05
    3.1298748218e-03    1.5862626562e+05
    3.1398944557e-03    1.5749295312e+05
    3.1499864999e-03    1.5636867188e+05
    3.1599598005e-03    1.5527496875e+05
    3.1698388048e-03    1.5420685938e+05
    3.1799911521e-03    1.5312728125e+05
    3.1898103189e-03    1.5209807812e+05
    3.1999088824e-03    1.5105500000e+05
    3.2098793890e-03    1.5004173438e+05
    3.2198899426e-03    1.4903846875e+05
    3.2297847793e-03    1.4806292188e+05
    3.2399308402e-03    1.4707707812e+05
    3.2499346416e-03    1.4611965625e+05
    3.2599898987e-03    1.4517156250e+05
    3.2698775176e-03    1.4425251562e+05
    3.2798193861e-03    1.4334118750e+05
    3.2898141071e-03    1.4243771875e+05
    3.2998458482e-03    1.4154395312e+05
    3.3099502325e-03    1.4065731250e+05
    3.3198418096e-03    1.3980128125e+05
    3.3298160415e-03    1.3895168750e+05
    3.3398084342e-03    1.3811175000e+05
    3.3498457633e-03    1.3728046875e+05
    3.3599417657e-03    1.3645559375e+05
    3.3698175102e-03    1.3565932812e+05
    3.3799977973e-03    1.3485087500e+05
    3.3899601549e-03    1.3407045312e+05
    3.3999611624e-03    1.3329792188e+05
    3.4097835887e-03    1.3255053125e+05
    3.4198476933e-03    1.3179489062e+05
    3.4299723338e-03    1.3104475000e+05
    3.4398727585e-03    1.3032161719e+05
    3.4498190507e-03    1.2960392969e+05
    3.4598149359e-03    1.2889090625e+05
    3.4697914962e-03    1.2818832031e+05
    3.4798490815e-03    1.2749249219e+05
    3.4899204038e-03    1.2680772656e+05
    3.4999931231e-03    1.2612992969e+05
    3.5099033266e-03    1.2546478906e+05
    3.5197914112e-03    1.2480793750e+05
    3.5299651790e-03    1.2415185156e+05
    3.5399603657e-03    1.2352784375e+05
    3.5499101505e-03    1.2290799219e+05
    3.5599367693e-03    1.2226727344e+05
    3.5699787550e-03    1.2162083594e+05
    3.5797541495e-03    1.2101780469e+05
    3.5898615606e-03    1.2044041406e+05
    3.5999519750e-03    1.1988885156e+05
    3.6098100245e-03    1.1932491406e+05
    3.6199679598e-03    1.1870167969e+05
    3.6298679188e-03    1.1808684375e+05
    3.6397967488e-03    1.1749777344e+05
    3.6497581750e-03    1.1695109375e+05
    3.6599708255e-03    1.1643468750e+05
    3.6699560005e-03    1.1594608594e+05
    3.6799558438e-03    1.1543639844e+05
    3.6899647675e-03    1.1489650781e+05
    3.6999906879e-03    1.1434346094e+05
    3.7097728346e-03    1.1380852344e+05
    3.7198113278e-03    1.1327141406e+05
    3.7298568059e-03    1.1275018750e+05
    3.7399060093e-03    1.1224833594e+05
    3.7499577738e-03    1.1176600781e+05
    3.7597601768e-03    1.1130846094e+05
    3.7698133383e-03    1.1084077344e+05
    3.7798653357e-03    1.1036828125e+05
    3.7899177987e-03    1.0989421094e+05
    3.7999693304e-03    1.0942612500e+05
    3.8097694051e-03    1.0897871094e+05
    3.8198193070e-03    1.0852659375e+05
    3.8298710715e-03    1.0807840625e+05
    3.8399233017e-03    1.0763392969e+05
    3.8499790244e-03    1.0719481250e+05
    3.8597856183e-03    1.0677230469e+05
    3.8698504213e-03    1.0634460156e+05
    3.8799163885e-03    1.0592088281e+05
    3.8899867795e-03    1.0550110156e+05
    3.8998189848e-03    1.0509633594e+05
    3.9099082351e-03    1.0468531250e+05
    3.9200000465e-03    1.0428059375e+05
    3.9298501797e-03    1.0389128125e+05
    3.9399685338e-03    1.0349591406e+05
    3.9498382248e-03    1.0311527344e+05
    3.9599644952e-03    1.0272909375e+05
    3.9698523469e-03    1.0235527344e+05
    3.9797541685e-03    1.0198505469e+05
    3.9899121039e-03    1.0160953906e+05
    3.9998223074e-03    1.0124482031e+05
    4.0097497404e-03    1.0087906250e+05
    4.0199412033e-03    1.0050333594e+05
    4.0298826061e-03    1.0013860156e+05
    4.0398337878e-03    9.9778164062e+04
    4.0497980081e-03    9.9425789062e+04
    4.0597710758e-03    9.9085648438e+04
    4.0697478689e-03    9.8759656250e+04
    4.0799961425e-03    9.8435742188e+04
    4.0899957530e-03    9.8120218750e+04
    4.0997467004e-03    9.7803343750e+04
    4.1097602807e-03    9.7467632812e+04
    4.1197920218e-03    9.7128320312e+04
    4.1298228316e-03    9.6795648438e+04
    4.1398657486e-03    9.6474343750e+04
    4.1499165818e-03    9.6163398438e+04
    4.1599851102e-03    9.5859476562e+04
    4.1697858833e-03    9.5568695312e+04
    4.1798572056e-03    9.5274335938e+04
    4.1899443604e-03    9.4981273438e+04
    4.1997865774e-03    9.4692179688e+04
    4.2098821141e-03    9.4388382812e+04
    4.2199906893e-03    9.4080351562e+04
    4.2298547924e-03    9.3785789062e+04
    4.2399847880e-03    9.3499492188e+04
    4.2498502880e-03    9.3238460938e+04
    4.2599877343e-03    9.2978539062e+04
    4.2698779143e-03    9.2717054688e+04
    4.2797764763e-03    9.2439351562e+04
    4.2899339460e-03    9.2146023438e+04
    4.2998413555e-03    9.1867773438e+04
    4.3097604066e-03    9.1606960938e+04
    4.3199430220e-03    9.1357242188e+04
    4.3298760429e-03    9.1120656250e+04
    4.3398137204e-03    9.0876460938e+04
    4.3497630395e-03    9.0617492188e+04
    4.3599652126e-03    9.0344281250e+04
    4.3699336238e-03    9.0084382812e+04
    4.3799034320e-03    8.9841820312e+04
    4.3898830190e-03    8.9616085938e+04
    4.3998463079e-03    8.9395507812e+04
    4.4098421931e-03    8.9162179688e+04
    4.4198296964e-03    8.8912335938e+04
    4.4298362918e-03    8.8659601562e+04
    4.4398317114e-03    8.8424085938e+04
    4.4498518109e-03    8.8210812500e+04
    4.4598644599e-03    8.8007531250e+04
    4.4698948041e-03    8.7792476562e+04
    4.4799158350e-03    8.7557273438e+04
    4.4899592176e-03    8.7315781250e+04
    4.4999993406e-03    8.7091132812e+04
    4.5097875409e-03    8.6894851562e+04
    4.5198285952e-03    8.6703140625e+04
    4.5298896730e-03    8.6499210938e+04
    4.5399554074e-03    8.6275421875e+04
    4.5497664250e-03    8.6053617188e+04
    4.5598386787e-03    8.5844351562e+04
    4.5699081384e-03    8.5657578125e+04
    4.5799878426e-03    8.5474609375e+04
    4.5898207463e-03    8.5280882812e+04
    4.5999316499e-03    8.5065835938e+04
    4.6097757295e-03    8.4860289062e+04
    4.6198768541e-03    8.4670468750e+04
    4.6299681999e-03    8.4497015625e+04
    4.6398164704e-03    8.4322554688e+04
    4.6499446034e-03    8.4125523438e+04
    4.6598096378e-03    8.3927601562e+04
    4.6699387021e-03    8.3736960938e+04
    4.6797981486e-03    8.3569867188e+04
    4.6899220906e-03    8.3403125000e+04
    4.6997792087e-03    8.3228085938e+04
    4.7099040821e-03    8.3037601562e+04
    4.7197686508e-03    8.2856953125e+04
    4.7299065627e-03    8.2687523438e+04
    4.7397781163e-03    8.2532320312e+04
    4.7499146312e-03    8.2365632812e+04
    4.7597829252e-03    8.2192140625e+04
    4.7699166462e-03    8.2014953125e+04
    4.7797835432e-03    8.1854375000e+04
    4.7899167985e-03    8.1699343750e+04
    4.7997841612e-03    8.1545531250e+04
    4.8099188134e-03    8.1379140625e+04
    4.8197857104e-03    8.1216851562e+04
    4.8299194314e-03    8.1057835938e+04
    4.8397858627e-03    8.0911585938e+04
    4.8499186523e-03    8.0761195312e+04
    4.8597846180e-03    8.0609445312e+04
    4.8699164763e-03    8.0451195312e+04
    4.8797819763e-03    8.0303632812e+04
    4.8899138346e-03    8.0158585938e+04
    4.8997784033e-03    8.0016726562e+04
    4.9099093303e-03    7.9868078125e+04
    4.9197725020e-03    7.9723437500e+04
    4.9299029633e-03    7.9579742188e+04
    4.9397670664e-03    7.9443820312e+04
    4.9498965964e-03    7.9305859375e+04
    4.9597602338e-03    7.9168601562e+04
    4.9698934890e-03    7.9028265625e+04
    4.9797655083e-03    7.8895773438e+04
    4.9899066798e-03    7.8763007812e+04
    4.9997828901e-03    7.8633242188e+04
    5.0099254586e-03    7.8499960938e+04
    5.0197998062e-03    7.8370523438e+04
    5.0299391150e-03    7.8240109375e+04
    5.0398111343e-03    7.8116078125e+04
    5.0499490462e-03    7.7988945312e+04
    5.0598210655e-03    7.7864992188e+04
    5.0699636340e-03    7.7739500000e+04
    5.0798421726e-03    7.7618570312e+04
    5.0899861380e-03    7.7496039062e+04
    5.0998623483e-03    7.7377851562e+04
    5.1097380929e-03    7.7259789062e+04
    5.1198801957e-03    7.7140210938e+04
    5.1297545433e-03    7.7025367188e+04
    5.1398975775e-03    7.6907921875e+04
    5.1497775130e-03    7.6794828125e+04
    5.1599233411e-03    7.6679500000e+04
    5.1698004827e-03    7.6568757812e+04
    5.1799439825e-03    7.6456843750e+04
    5.1898201928e-03    7.6348359375e+04
    5.1999683492e-03    7.6237820312e+04
    5.2098510787e-03    7.6130867188e+04
    5.2199992351e-03    7.6022054688e+04
    5.2298796363e-03    7.5917500000e+04
    5.2397591062e-03    7.5813367188e+04
    5.2499105223e-03    7.5707062500e+04
    5.2597955801e-03    7.5604242188e+04
    5.2699469961e-03    7.5499617188e+04
    5.2798301913e-03    7.5399132812e+04
    5.2899797447e-03    7.5297007812e+04
    5.2998671308e-03    7.5199367188e+04
    5.3097545169e-03    7.5104359375e+04
    5.3199082613e-03    7.5010695312e+04
    5.3297933191e-03    7.4923859375e+04
    5.3399489261e-03    7.4837539062e+04
    5.3498377092e-03    7.4753406250e+04
    5.3599933162e-03    7.4663210938e+04
    5.3698807023e-03    7.4570601562e+04
    5.3797690198e-03    7.4475484375e+04
    5.3899269551e-03    7.4379507812e+04
    5.3998162039e-03    7.4290765625e+04
    5.4099722765e-03    7.4203750000e+04
    5.4198624566e-03    7.4120140625e+04
    5.4297531024e-03    7.4035492188e+04
    5.4399101064e-03    7.3948132812e+04
    5.4497993551e-03    7.3864398438e+04
    5.4599572904e-03    7.3780273438e+04
    5.4698474705e-03    7.3699382812e+04
    5.4797371849e-03    7.3618796875e+04
    5.4898941889e-03    7.3536664062e+04
    5.4997843690e-03    7.3457765625e+04
    5.5099409074e-03    7.3377820312e+04
    5.5198301561e-03    7.3300679688e+04
    5.5299866945e-03    7.3222164062e+04
    5.5398754776e-03    7.3146578125e+04
    5.5497637950e-03    7.3071890625e+04
    5.5599189363e-03    7.2995992188e+04
    5.5698077194e-03    7.2922757812e+04
    5.5799647234e-03    7.2848226562e+04
    5.5898539722e-03    7.2776398438e+04
    5.5997427553e-03    7.2705375000e+04
    5.6098974310e-03    7.2633289062e+04
    5.6197848171e-03    7.2563921875e+04
    5.6299390271e-03    7.2493500000e+04
    5.6398259476e-03    7.2425679688e+04
    5.6499810889e-03    7.2356726562e+04
    5.6598694064e-03    7.2290234375e+04
    5.6697572581e-03    7.2224453125e+04
    5.6799123995e-03    7.2157695312e+04
    5.6897997856e-03    7.2093414062e+04
    5.6999539956e-03    7.2028093750e+04
    5.7098404504e-03    7.1965234375e+04
    5.7199941948e-03    7.1901460938e+04
    5.7298801839e-03    7.1840093750e+04
    5.7397657074e-03    7.1779367188e+04
    5.7499175891e-03    7.1717664062e+04
    5.7598021813e-03    7.1658210938e+04
    5.7699540630e-03    7.1597781250e+04
    5.7798386551e-03    7.1539664062e+04
    5.7899910025e-03    7.1480796875e+04
    5.7998765260e-03    7.1424195312e+04
    5.8097620495e-03    7.1368117188e+04
    5.8199139312e-03    7.1311054688e+04
    5.8297980577e-03    7.1256187500e+04
    5.8399485424e-03    7.1200625000e+04
    5.8498322032e-03    7.1147164062e+04
    5.8599826880e-03    7.1092875000e+04
    5.8698663488e-03    7.1040703125e+04
    5.8797500096e-03    7.0989281250e+04
    5.8899004944e-03    7.0937179688e+04
    5.8997832239e-03    7.0887023438e+04
    5.9099323116e-03    7.0836000000e+04
    5.9198145755e-03    7.0786773438e+04
    5.9299636632e-03    7.0736710938e+04
    5.9398454614e-03    7.0688531250e+04
    5.9499936178e-03    7.0639742188e+04
    5.9598744847e-03    7.0593031250e+04
    5.9697553515e-03    7.0547140625e+04
    5.9799025767e-03    7.0500710938e+04
    5.9897825122e-03    7.0455875000e+04
    5.9999297373e-03    7.0410140625e+04
    6.0098101385e-03    7.0366203125e+04
    6.0199573636e-03    7.0321960938e+04
    6.0298386961e-03    7.0279625000e+04
    6.0399891809e-03    7.0236515625e+04
    6.0498747043e-03    7.0194781250e+04
    6.0597611591e-03    7.0153585938e+04
    6.0699195601e-03    7.0112109375e+04
    6.0798181221e-03    7.0072398438e+04
    6.0899918899e-03    7.0032023438e+04
    6.0999030247e-03    6.9993101562e+04
    6.1098211445e-03    6.9954718750e+04
    6.1197513714e-03    6.9916882812e+04
    6.1299623922e-03    6.9878507812e+04
    6.1399121769e-03    6.9841625000e+04
    6.1498708092e-03    6.9805328125e+04
    6.1598396860e-03    6.9769570312e+04
    6.1698229983e-03    6.9734203125e+04
    6.1798174866e-03    6.9699226562e+04
    6.1898180284e-03    6.9664812500e+04
    6.1998288147e-03    6.9631046875e+04
    6.2098512426e-03    6.9597820312e+04
    6.2198834494e-03    6.9565007812e+04
    6.2299249694e-03    6.9532539062e+04
    6.2399781309e-03    6.9500437500e+04
    6.2497672625e-03    6.9469671875e+04
    6.2598390505e-03    6.9438671875e+04
    6.2699201517e-03    6.9408343750e+04
    6.2797404826e-03    6.9379351562e+04
    6.2898420729e-03    6.9349914062e+04
    6.2999473885e-03    6.9320781250e+04
    6.3097910024e-03    6.9292835938e+04
    6.3199177384e-03    6.9264695312e+04
    6.3297781162e-03    6.9237921875e+04
    6.3399202190e-03    6.9210882812e+04
    6.3497954980e-03    6.9184867188e+04
    6.3599548303e-03    6.9158492188e+04
    6.3698492013e-03    6.9133335938e+04
    6.3797486946e-03    6.9108773438e+04
    6.3899341039e-03    6.9084039062e+04
    6.3998494297e-03    6.9060390625e+04
    6.4097694121e-03    6.9037156250e+04
    6.4199790359e-03    6.9013687500e+04
    6.4299171790e-03    6.8991250000e+04
    6.4398609102e-03    6.8969226562e+04
    6.4498116262e-03    6.8947742188e+04
    6.4597674645e-03    6.8926859375e+04
    6.4697344787e-03    6.8906492188e+04
    6.4799860120e-03    6.8885906250e+04
    6.4899614081e-03    6.8866093750e+04
    6.4999489114e-03    6.8846554688e+04
    6.5099406056e-03    6.8827523438e+04
    6.5199374221e-03    6.8809148438e+04
    6.5299458802e-03    6.8791359375e+04
    6.5399534069e-03    6.8773992188e+04
    6.5499697812e-03    6.8756882812e+04
    6.5599936061e-03    6.8740046875e+04
    6.5697412938e-03    6.8724101562e+04
    6.5797814168e-03    6.8708273438e+04
    6.5898220055e-03    6.8693101562e+04
    6.5998625942e-03    6.8678468750e+04
    6.6099185497e-03    6.8664156250e+04
    6.6199754365e-03    6.8649984375e+04
    6.6297603771e-03    6.8636390625e+04
    6.6398326308e-03    6.8622859375e+04
    6.6499002278e-03    6.8610093750e+04
    6.6599831916e-03    6.8598015625e+04
    6.6697900183e-03    6.8586625000e+04
    6.6798781045e-03    6.8574992188e+04
    6.6899810918e-03    6.8563507812e+04
    6.6997976974e-03    6.8552773438e+04
    6.7098997533e-03    6.8542375000e+04
    6.7197373137e-03    6.8532929688e+04
    6.7298500799e-03    6.8523812500e+04
    6.7399768159e-03    6.8515015625e+04
    6.7498241551e-03    6.8506554688e+04
    6.7599453032e-03    6.8497953125e+04
    6.7698080093e-03    6.8489976562e+04
    6.7799519747e-03    6.8482515625e+04
    6.7898132838e-03    6.8476023438e+04
    6.7999730818e-03    6.8469804688e+04
    6.8098399788e-03    6.8463882812e+04
    6.8197203800e-03    6.8457984375e+04
    6.8298950791e-03    6.8452179688e+04
    6.8397754803e-03    6.8447125000e+04
    6.8499529734e-03    6.8442671875e+04
    6.8598543294e-03    6.8438992188e+04
    6.8697510287e-03    6.8435695312e+04
    6.8799499422e-03    6.8432437500e+04
    6.8898606114e-03    6.8429328125e+04
    6.8997759372e-03    6.8426390625e+04
    6.9099892862e-03    6.8423859375e+04
    6.9199088030e-03    6.8422148438e+04
    6.9298371673e-03    6.8421203125e+04
    6.9397748448e-03    6.8420687500e+04
    6.9499937817e-03    6.8420218750e+04
    6.9599444978e-03    6.8419789062e+04
    6.9698966108e-03    6.8419734375e+04
    6.9798468612e-03    6.8420296875e+04
    6.9898082875e-03    6.8421390625e+04
    6.9997655228e-03    6.8422835938e+04
    7.0097288117e-03    6.8424601562e+04
    7.0199910551e-03    6.8426773438e+04
    7.0299678482e-03    6.8429203125e+04
    7.0399520919e-03    6.8431976562e+04
    7.0499433205e-03    6.8435218750e+04
    7.0599303581e-03    6.8439007812e+04
    7.0699243806e-03    6.8443281250e+04
    7.0799216628e-03    6.8447898438e+04
    7.0899245329e-03    6.8452773438e+04
    7.0999362506e-03    6.8457929688e+04
    7.1099502966e-03    6.8463476562e+04
    7.1199680679e-03    6.8469476562e+04
    7.1299946867e-03    6.8475914062e+04
    7.1397316642e-03    6.8482500000e+04
    7.1497610770e-03    6.8489585938e+04
    7.1597984061e-03    6.8497015625e+04
    7.1698399261e-03    6.8504851562e+04
    7.1798893623e-03    6.8513117188e+04
    7.1899443865e-03    6.8521804688e+04
    7.1999994107e-03    6.8530882812e+04
    7.2097699158e-03    6.8540046875e+04
    7.2198314592e-03    6.8549835938e+04
    7.2298995219e-03    6.8560046875e+04
    7.2399778292e-03    6.8570656250e+04
    7.2497734800e-03    6.8581273438e+04
    7.2598583065e-03    6.8592539062e+04
    7.2699468583e-03    6.8604265625e+04
    7.2797485627e-03    6.8616062500e+04
    7.2898427024e-03    6.8628507812e+04
    7.2999461554e-03    6.8641289062e+04
    7.3097706772e-03    6.8654164062e+04
    7.3198899627e-03    6.8667882812e+04
    7.3297219351e-03    6.8681523438e+04
    7.3398430832e-03    6.8695875000e+04
    7.3499679565e-03    6.8710656250e+04
    7.3598111048e-03    6.8725421875e+04
    7.3699508794e-03    6.8740992188e+04
    7.3798066005e-03    6.8756492188e+04
    7.3899598792e-03    6.8772859375e+04
    7.3998249136e-03    6.8789085938e+04
    7.4099805206e-03    6.8806054688e+04
    7.4198516086e-03    6.8822875000e+04
    7.4297301471e-03    6.8840117188e+04
    7.4399053119e-03    6.8858320312e+04
    7.4497959577e-03    6.8876414062e+04
    7.4599832296e-03    6.8895421875e+04
    7.4698831886e-03    6.8914250000e+04
    7.4797868729e-03    6.8933468750e+04
    7.4899839237e-03    6.8953734375e+04
    7.4998959899e-03    6.8973906250e+04
    7.5098173693e-03    6.8994492188e+04
    7.5197434053e-03    6.9015421875e+04
    7.5299669988e-03    6.9037351562e+04
    7.5399042107e-03    6.9059070312e+04
    7.5498437509e-03    6.9081187500e+04
    7.5597860850e-03    6.9103640625e+04
    7.5697330758e-03    6.9126414062e+04
    7.5799846090e-03    6.9150226562e+04
    7.5899530202e-03    6.9173765625e+04
    7.5999232940e-03    6.9197703125e+04
    7.6098958962e-03    6.9222031250e+04
    7.6198675670e-03    6.9246742188e+04
    7.6298434287e-03    6.9271851562e+04
    7.6398258097e-03    6.9297343750e+04
    7.6498151757e-03    6.9323242188e+04
    7.6598175801e-03    6.9349570312e+04
    7.6698316261e-03    6.9376351562e+04
    7.6798535883e-03    6.9403570312e+04
    7.6898816042e-03    6.9431187500e+04
    7.6999100856e-03    6.9459148438e+04
    7.7099362388e-03    6.9487500000e+04
    7.7199623920e-03    6.9516273438e+04
    7.7299829572e-03    6.9545484375e+04
    7.7397138812e-03    6.9574210938e+04
    7.7497418970e-03    6.9604156250e+04
    7.7597713098e-03    6.9634453125e+04
    7.7698063105e-03    6.9665195312e+04
    7.7798413113e-03    6.9696421875e+04
    7.7898758464e-03    6.9728101562e+04
    7.7999192290e-03    6.9760187500e+04
    7.8099728562e-03    6.9792648438e+04
    7.8197373077e-03    6.9824523438e+04
    7.8298039734e-03    6.9857812500e+04
    7.8398659825e-03    6.9891546875e+04
    7.8499242663e-03    6.9925695312e+04
    7.8599881381e-03    6.9960281250e+04
    7.8697539866e-03    6.9994257812e+04
    7.8798262402e-03    7.0029718750e+04
    7.8899068758e-03    7.0065640625e+04
    7.8999903053e-03    7.0101984375e+04
    7.9097822309e-03    7.0137656250e+04
    7.9198740423e-03    7.0174835938e+04
    7.9299677163e-03    7.0212492188e+04
    7.9397680238e-03    7.0249531250e+04
    7.9498616979e-03    7.0288179688e+04
    7.9599535093e-03    7.0327328125e+04
    7.9697556794e-03    7.0365804688e+04
    7.9798530787e-03    7.0405859375e+04
    7.9899607226e-03    7.0446304688e+04
    7.9997768626e-03    7.0485875000e+04
    8.0098947510e-03    7.0526968750e+04
    8.0197127536e-03    7.0567242188e+04
    8.0298287794e-03    7.0609257812e+04
    8.0399354920e-03    7.0651843750e+04
    8.0497516319e-03    7.0693742188e+04
    8.0598779023e-03    7.0737523438e+04
    8.0697061494e-03    7.0780562500e+04
    8.0798426643e-03    7.0825539062e+04
    8.0899754539e-03    7.0871039062e+04
    8.0998130143e-03    7.0915570312e+04
    8.1099448726e-03    7.0961734375e+04
    8.1197824329e-03    7.1006921875e+04
    8.1299263984e-03    7.1053984375e+04
    8.1397797912e-03    7.1100164062e+04
    8.1499349326e-03    7.1148164062e+04
    8.1597911194e-03    7.1195148438e+04
    8.1699481234e-03    7.1244054688e+04
    8.1798005849e-03    7.1292062500e+04
    8.1899594516e-03    7.1342210938e+04
    8.1998212263e-03    7.1391539062e+04
    8.2099838182e-03    7.1443031250e+04
    8.2198549062e-03    7.1493703125e+04
    8.2297278568e-03    7.1544992188e+04
    8.2399044186e-03    7.1598398438e+04
    8.2497820258e-03    7.1650671875e+04
    8.2599585876e-03    7.1704882812e+04
    8.2698334008e-03    7.1757835938e+04
    8.2797072828e-03    7.1811210938e+04
    8.2898782566e-03    7.1866773438e+04
    8.2997502759e-03    7.1921382812e+04
    8.3099193871e-03    7.1978390625e+04
    8.3197904751e-03    7.2034429688e+04
    8.3299586549e-03    7.2092859375e+04
    8.3398278803e-03    7.2150171875e+04
    8.3499960601e-03    7.2209757812e+04
    8.3598643541e-03    7.2268062500e+04
    8.3697335795e-03    7.2326882812e+04
    8.3799017593e-03    7.2388132812e+04
    8.3897737786e-03    7.2448289062e+04
    8.3999447525e-03    7.2510992188e+04
    8.4098139778e-03    7.2572546875e+04
    8.4199849516e-03    7.2636734375e+04
    8.4298569709e-03    7.2699718750e+04
    8.4397308528e-03    7.2763289062e+04
    8.4499092773e-03    7.2834843750e+04
    8.4597924724e-03    7.6589632812e+04
    8.4699746221e-03    1.0947514844e+05
    8.4798550233e-03    1.0855568750e+05
    8.4897372872e-03    1.0835410156e+05
    8.4999278188e-03    1.0821678906e+05
    8.5098380223e-03    1.0809878125e+05
    8.5197528824e-03    1.0798283594e+05
    8.5299713537e-03    1.0786402344e+05
    8.5398862138e-03    1.0774927344e+05
    8.5497982800e-03    1.0763487500e+05
    8.5597224534e-03    1.0752085156e+05
    8.5699660704e-03    1.0740243750e+05
    8.5799181834e-03    1.0729017969e+05
    8.5898702964e-03    1.0717391406e+05
    8.5998168215e-03    1.0706272656e+05
    8.6097633466e-03    1.0694585156e+05
    8.6197201163e-03    1.0683367969e+05
    8.6297011003e-03    1.0671825000e+05
    8.6399912834e-03    1.0660006250e+05
    8.6499955505e-03    1.0648472656e+05
    8.6599960923e-03    1.0636928125e+05
    8.6696976796e-03    1.0625728125e+05
    8.6797215044e-03    1.0614162500e+05
    8.6897602305e-03    1.0602597656e+05
    8.6998054758e-03    1.0591043750e+05
    8.7098684162e-03    1.0579490625e+05
    8.7199453264e-03    1.0567947656e+05
    8.7297130376e-03    1.0556789844e+05
    8.7398001924e-03    1.0545297656e+05
    8.7498985231e-03    1.0533835156e+05
    8.7599987164e-03    1.0522421094e+05
    8.7697971612e-03    1.0511391406e+05
    8.7799094617e-03    1.0500050781e+05
    8.7897125632e-03    1.0489102344e+05
    8.7998230010e-03    1.0477860156e+05
    8.8099399582e-03    1.0466674219e+05
    8.8197588921e-03    1.0455864844e+05
    8.8298954070e-03    1.0444753906e+05
    8.8397292420e-03    1.0434042969e+05
    8.8498685509e-03    1.0423075000e+05
    8.8597713038e-03    1.0412433594e+05
    8.8698752224e-03    1.0401633594e+05
    8.8798990473e-03    1.0390969531e+05
    8.8898371905e-03    1.0380452344e+05
    8.8996691629e-03    1.0370111719e+05
    8.9097237214e-03    1.0359611719e+05
    8.9199962094e-03    1.0348953906e+05
    8.9297564700e-03    1.0338860156e+05
    8.9397002012e-03    1.0328644531e+05
    8.9498264715e-03    1.0318316406e+05
    8.9597487822e-03    1.0308177344e+05
    8.9698368683e-03    1.0298102344e+05
    8.9796921238e-03    1.0288135156e+05
    8.9896991849e-03    1.0278197656e+05
    8.9998561889e-03    1.0268050000e+05
    9.0097486973e-03    1.0258378906e+05
    9.0197781101e-03    1.0248488281e+05
    9.0299332514e-03    1.0238653906e+05
    9.0397801250e-03    1.0229100000e+05
    9.0497424826e-03    1.0219503125e+05
    9.0598203242e-03    1.0209840625e+05
    9.0695722029e-03    1.0200567969e+05
    9.0798744932e-03    1.0190832031e+05
    9.0898284689e-03    1.0181484375e+05
    9.0998634696e-03    1.0172121094e+05
    9.1099608690e-03    1.0162759375e+05
    9.1196363792e-03    1.0153835156e+05
    9.1298185289e-03    1.0144482031e+05
    9.1395843774e-03    1.0135564844e+05
    9.1498745605e-03    1.0126238281e+05
    9.1597409919e-03    1.0117328906e+05
    9.1696614400e-03    1.0108410156e+05
    9.1796517372e-03    1.0099493750e+05
    9.1896830127e-03    1.0090599219e+05
    9.1997524723e-03    1.0081708594e+05
    9.2098787427e-03    1.0072835156e+05
    9.2195803300e-03    1.0064382031e+05
    9.2298239470e-03    1.0055543750e+05
    9.2395897955e-03    1.0047138281e+05
    9.2499488965e-03    1.0038343750e+05
    9.2598088086e-03    1.0029962500e+05
    9.2697162181e-03    1.0021600781e+05
    9.2797148973e-03    1.0013171875e+05
    9.2897154391e-03    1.0004814844e+05
    9.2997746542e-03    9.9964304688e+04
    9.3098422512e-03    9.9880335938e+04
    9.3194777146e-03    9.9801039062e+04
    9.3297194690e-03    9.9717976562e+04
    9.3399342149e-03    9.9634406250e+04
    9.3496860936e-03    9.9555757812e+04
    9.3594649807e-03    9.9477148438e+04
    9.3698492274e-03    9.9394398438e+04
    9.3797789887e-03    9.9315710938e+04
    9.3896631151e-03    9.9236468750e+04
    9.3995975330e-03    9.9158226562e+04
    9.4095421955e-03    9.9080039062e+04
    9.4195269048e-03    9.9002460938e+04
    9.4295525923e-03    9.8925164062e+04
    9.4396183267e-03    9.8847820312e+04
    9.4497362152e-03    9.8770742188e+04
    9.4598736614e-03    9.8693968750e+04
    9.4694783911e-03    9.8621101562e+04
    9.4796912745e-03    9.8544273438e+04
    9.4898473471e-03    9.8467507812e+04
    9.4996048138e-03    9.8394750000e+04
    9.5098270103e-03    9.8318218750e+04
    9.5196058974e-03    9.8246289062e+04
    9.5299333334e-03    9.8170304688e+04
    9.5396284014e-03    9.8099257812e+04
    9.5498245209e-03    9.8024835938e+04
    9.5598381013e-03    9.7952148438e+04
    9.5695722848e-03    9.7881843750e+04
    9.5798978582e-03    9.7807468750e+04
    9.5897596329e-03    9.7736726562e+04
    9.5996074378e-03    9.7666375000e+04
    9.6098184586e-03    9.7593812500e+04
    9.6198823303e-03    9.7522562500e+04
    9.6297562122e-03    9.7452812500e+04
    9.6397353336e-03    9.7382726562e+04
    9.6496939659e-03    9.7313085938e+04
    9.6597904339e-03    9.7242750000e+04
    9.6697947010e-03    9.7173539062e+04
    9.6798995510e-03    9.7103992188e+04
    9.6898917109e-03    9.7034976562e+04
    9.6998978406e-03    9.6965789062e+04
    9.7099523991e-03    9.6897179688e+04
    9.7199082375e-03    9.6829726562e+04
    9.7299776971e-03    9.6762468750e+04
    9.7398599610e-03    9.6697195312e+04
    9.7498577088e-03    9.6630085938e+04
    9.7599271685e-03    9.6561679688e+04
    9.7698234022e-03    9.6493304688e+04
    9.7798686475e-03    9.6425132812e+04
    9.7898626700e-03    9.6360039062e+04
    9.7998762503e-03    9.6298101562e+04
    9.8099289462e-03    9.6236937500e+04
    9.8198279738e-03    9.6174523438e+04
    9.8299384117e-03    9.6106023438e+04
    9.8398486152e-03    9.6035148438e+04
    9.8499627784e-03    9.5962976562e+04
    9.8597975448e-03    9.5896820312e+04
    9.8697766662e-03    9.5835250000e+04
    9.8798787221e-03    9.5777156250e+04
    9.8898401484e-03    9.5721570312e+04
    9.8998909816e-03    9.5664531250e+04
    9.9097751081e-03    9.5604664062e+04
    9.9199665710e-03    9.5538210938e+04
    9.9299754947e-03    9.5470148438e+04
    9.9397832528e-03    9.5403148438e+04
    9.9498815835e-03    9.5335906250e+04
    9.9597722292e-03    9.5272437500e+04
    9.9699450657e-03    9.5209273438e+04
    9.9799083546e-03    9.5149289062e+04
    9.9898995832e-03    9.5090226562e+04
    9.9999243394e-03    9.5031132812e+04
    1.0009970516e-02    9.4971179688e+04
    1.0019789450e-02    9.4911601562e+04
    1.0029888712e-02    9.4849906250e+04
    1.0039999150e-02    9.4788601562e+04
    1.0049888864e-02    9.4728992188e+04
    1.0059788823e-02    9.4669531250e+04
    1.0069960728e-02    9.4608929688e+04
    1.0079905391e-02    9.4549539062e+04
    1.0089853778e-02    9.4490281250e+04
    1.0099835694e-02    9.4431007812e+04
    1.0109814815e-02    9.4371601562e+04
    1.0119816288e-02    9.4312507812e+04
    1.0129845701e-02    9.4253195312e+04
    1.0139862075e-02    9.4193867188e+04
    1.0149916634e-02    9.4134937500e+04
    1.0159969330e-02    9.4076187500e+04
    1.0169789195e-02    9.4019382812e+04
    1.0179885663e-02    9.3961156250e+04
    1.0189969093e-02    9.3903656250e+04
    1.0199843906e-02    9.3847718750e+04
    1.0209982283e-02    9.3790664062e+04
    1.0219851509e-02    9.3735617188e+04
    1.0229748674e-02    9.3680710938e+04
    1.0239930823e-02    9.3624023438e+04
    1.0249860585e-02    9.3568117188e+04
    1.0259790346e-02    9.3511593750e+04
    1.0269743390e-02    9.3454132812e+04
    1.0279990733e-02    9.3394210938e+04
    1.0289963335e-02    9.3336773438e+04
    1.0299945250e-02    9.3281648438e+04
    1.0309950449e-02    9.3228750000e+04
    1.0319972411e-02    9.3176781250e+04
    1.0329986922e-02    9.3123898438e+04
    1.0339746252e-02    9.3070101562e+04
    1.0349803604e-02    9.3012492188e+04
    1.0359866545e-02    9.2954226562e+04
    1.0369922034e-02    9.2897351562e+04
    1.0379990563e-02    9.2842625000e+04
    1.0389825329e-02    9.2790648438e+04
    1.0399919935e-02    9.2737656250e+04
    1.0409746319e-02    9.2686242188e+04
    1.0419860482e-02    9.2632429688e+04
    1.0429996997e-02    9.2576968750e+04
    1.0439859703e-02    9.2521835938e+04
    1.0449991561e-02    9.2465000000e+04
    1.0459882207e-02    9.2411804688e+04
    1.0469784029e-02    9.2359531250e+04
    1.0479943827e-02    9.2308289062e+04
    1.0489845648e-02    9.2256914062e+04
    1.0499769822e-02    9.2203468750e+04
    1.0509969667e-02    9.2147375000e+04
    1.0519895703e-02    9.2092648438e+04
    1.0529832914e-02    9.2040750000e+04
    1.0539785028e-02    9.1989656250e+04
    1.0549743660e-02    9.1938992188e+04
    1.0559971444e-02    9.1885398438e+04
    1.0569942184e-02    9.1831101562e+04
    1.0579922237e-02    9.1776656250e+04
    1.0589902289e-02    9.1724687500e+04
    1.0599887930e-02    9.1674070312e+04
    1.0609884746e-02    9.1623585938e+04
    1.0619890876e-02    9.1571570312e+04
    1.0629896075e-02    9.1518648438e+04
    1.0639907792e-02    9.1465414062e+04
    1.0649926960e-02    9.1413726562e+04
    1.0659954511e-02    9.1363117188e+04
    1.0669980198e-02    9.1312460938e+04
    1.0679736733e-02    9.1261664062e+04
    1.0689773597e-02    9.1209070312e+04
    1.0699816979e-02    9.1157437500e+04
    1.0709865950e-02    9.1106867188e+04
    1.0719922371e-02    9.1056414062e+04
    1.0729981586e-02    9.1004757812e+04
    1.0739770718e-02    9.0954500000e+04
    1.0749829002e-02    9.0902906250e+04
    1.0759889148e-02    9.0852281250e+04
    1.0769953020e-02    9.0802039062e+04
    1.0779747739e-02    9.0752804688e+04
    1.0789813474e-02    9.0701539062e+04
    1.0799885727e-02    9.0650414062e+04
    1.0809963569e-02    9.0600398438e+04
    1.0819771327e-02    9.0551695312e+04
    1.0829852894e-02    9.0501210938e+04
    1.0839934461e-02    9.0450382812e+04
    1.0849743150e-02    9.0401250000e+04
    1.0859824717e-02    9.0351539062e+04
    1.0869906284e-02    9.0302132812e+04
    1.0879987851e-02    9.0252085938e+04
    1.0889796540e-02    9.0203375000e+04
    1.0899878107e-02    9.0153476562e+04
    1.0909960605e-02    9.0104023438e+04
    1.0919770226e-02    9.0056367188e+04
    1.0929853655e-02    9.0007039062e+04
    1.0939938016e-02    8.9957867188e+04
    1.0949750431e-02    8.9910625000e+04
    1.0959835723e-02    8.9861710938e+04
    1.0969921947e-02    8.9811992188e+04
    1.0979735292e-02    8.9763406250e+04
    1.0989822447e-02    8.9713367188e+04
    1.0999909602e-02    8.9663617188e+04
    1.1009998620e-02    8.9614968750e+04
    1.1019815691e-02    8.9568351562e+04
    1.1029905640e-02    8.9520976562e+04
    1.1039995588e-02    8.9474289062e+04
    1.1049813591e-02    8.9428617188e+04
    1.1059904471e-02    8.9380648438e+04
    1.1069996282e-02    8.9332500000e+04
    1.1079815216e-02    8.9286210938e+04
    1.1089907028e-02    8.9237929688e+04
    1.1099997908e-02    8.9189148438e+04
    1.1109816842e-02    8.9142960938e+04
    1.1119909585e-02    8.9095414062e+04
    1.1129731312e-02    8.9048914062e+04
    1.1139829643e-02    8.9001914062e+04
    1.1149932630e-02    8.8954289062e+04
    1.1159768328e-02    8.8908820312e+04
    1.1169876903e-02    8.8862085938e+04
    1.1179984547e-02    8.8814992188e+04
    1.1189817451e-02    8.8770335938e+04
    1.1199922301e-02    8.8724851562e+04
    1.1209754273e-02    8.8680617188e+04
    1.1219859123e-02    8.8635460938e+04
    1.1229965836e-02    8.8590226562e+04
    1.1239802465e-02    8.8545929688e+04
    1.1249913834e-02    8.8500351562e+04
    1.1259751394e-02    8.8455312500e+04
    1.1269861832e-02    8.8408835938e+04
    1.1279973201e-02    8.8362382812e+04
    1.1289810762e-02    8.8317687500e+04
    1.1299922131e-02    8.8272406250e+04
    1.1309759691e-02    8.8229000000e+04
    1.1319871061e-02    8.8184960938e+04
    1.1329981498e-02    8.8141179688e+04
    1.1339819059e-02    8.8098710938e+04
    1.1349931359e-02    8.8054976562e+04
    1.1359770782e-02    8.8011906250e+04
    1.1369882151e-02    8.7967523438e+04
    1.1379994452e-02    8.7923070312e+04
    1.1389832944e-02    8.7879976562e+04
    1.1399944313e-02    8.7836351562e+04
    1.1409783736e-02    8.7794289062e+04
    1.1419896036e-02    8.7751406250e+04
    1.1429735459e-02    8.7709945312e+04
    1.1439847760e-02    8.7667195312e+04
    1.1449960060e-02    8.7624289062e+04
    1.1459799483e-02    8.7582585938e+04
    1.1469911784e-02    8.7539882812e+04
    1.1479752138e-02    8.7498593750e+04
    1.1489865370e-02    8.7456468750e+04
    1.1499977671e-02    8.7414648438e+04
    1.1509818025e-02    8.7374171875e+04
    1.1519930325e-02    8.7332750000e+04
    1.1529770680e-02    8.7292156250e+04
    1.1539883912e-02    8.7250796875e+04
    1.1549998075e-02    8.7209476562e+04
    1.1559838429e-02    8.7169585938e+04
    1.1569951661e-02    8.7129218750e+04
    1.1579792015e-02    8.7089421875e+04
    1.1589906178e-02    8.7049156250e+04
    1.1599746533e-02    8.7009703125e+04
    1.1609860696e-02    8.6969445312e+04
    1.1619974859e-02    8.6929507812e+04
    1.1629815213e-02    8.6890687500e+04
    1.1639929377e-02    8.6851234375e+04
    1.1649770662e-02    8.6812820312e+04
    1.1659884825e-02    8.6773593750e+04
    1.1669998989e-02    8.6734359375e+04
    1.1679840274e-02    8.6696453125e+04
    1.1689954437e-02    8.6657585938e+04
    1.1699796654e-02    8.6620007812e+04
    1.1709911749e-02    8.6581601562e+04
    1.1719753034e-02    8.6544382812e+04
    1.1729868129e-02    8.6506343750e+04
    1.1739983223e-02    8.6468421875e+04
    1.1749825440e-02    8.6431703125e+04
    1.1759940535e-02    8.6394187500e+04
    1.1769782752e-02    8.6357750000e+04
    1.1779897846e-02    8.6320562500e+04
    1.1789740063e-02    8.6284500000e+04
    1.1799856089e-02    8.6247367188e+04
    1.1809972115e-02    8.6210687500e+04
    1.1819815263e-02    8.6175156250e+04
    1.1829931289e-02    8.6138710938e+04
    1.1839774437e-02    8.6103429688e+04
    1.1849890463e-02    8.6067414062e+04
    1.1859734543e-02    8.6032570312e+04
    1.1869851500e-02    8.5997085938e+04
    1.1879968457e-02    8.5961898438e+04
    1.1889812537e-02    8.5927578125e+04
    1.1899930425e-02    8.5892531250e+04
    1.1909775436e-02    8.5858671875e+04
    1.1919893324e-02    8.5823570312e+04
    1.1929737404e-02    8.5789937500e+04
    1.1939855292e-02    8.5755609375e+04
    1.1949974112e-02    8.5721273438e+04
    1.1959819123e-02    8.5688226562e+04
    1.1969937943e-02    8.5654273438e+04
    1.1979782954e-02    8.5621617188e+04
    1.1989902705e-02    8.5587882812e+04
    1.1999748647e-02    8.5555648438e+04
    1.2009869330e-02    8.5522328125e+04
    1.2019989081e-02    8.5489664062e+04
    1.2029835954e-02    8.5457687500e+04
    1.2039956637e-02    8.5425257812e+04
    1.2049803510e-02    8.5393546875e+04
    1.2059924193e-02    8.5361414062e+04
    1.2069771998e-02    8.5330125000e+04
    1.2079892680e-02    8.5298359375e+04
    1.2089740485e-02    8.5267500000e+04
    1.2099862099e-02    8.5236046875e+04
    1.2109983712e-02    8.5204710938e+04
    1.2119831517e-02    8.5174375000e+04
    1.2129953131e-02    8.5143367188e+04
    1.2139801867e-02    8.5113367188e+04
    1.2149925344e-02    8.5082726562e+04
    1.2159774080e-02    8.5053093750e+04
    1.2169897556e-02    8.5022804688e+04
    1.2179748155e-02    8.4993500000e+04
    1.2189870700e-02    8.4963632812e+04
    1.2199994177e-02    8.4934054688e+04
    1.2209844775e-02    8.4905437500e+04
    1.2219968252e-02    8.4875984375e+04
    1.2229818851e-02    8.4847351562e+04
    1.2239943258e-02    8.4818382812e+04
    1.2249794789e-02    8.4790531250e+04
    1.2259920128e-02    8.4761796875e+04
    1.2269771658e-02    8.4734140625e+04
    1.2279896997e-02    8.4705867188e+04
    1.2289748527e-02    8.4678226562e+04
    1.2299874797e-02    8.4650640625e+04
    1.2309727259e-02    8.4623781250e+04
    1.2319852598e-02    8.4596039062e+04
    1.2329979800e-02    8.4568726562e+04
    1.2339832261e-02    8.4542179688e+04
    1.2349959463e-02    8.4515140625e+04
    1.2359812856e-02    8.4489007812e+04
    1.2369940057e-02    8.4462281250e+04
    1.2379794382e-02    8.4436367188e+04
    1.2389921583e-02    8.4410156250e+04
    1.2399775907e-02    8.4384601562e+04
    1.2409904040e-02    8.4358835938e+04
    1.2419759296e-02    8.4333703125e+04
    1.2429887429e-02    8.4308218750e+04
    1.2439742684e-02    8.4283328125e+04
    1.2449871749e-02    8.4258007812e+04
    1.2459727004e-02    8.4233531250e+04
    1.2469856068e-02    8.4208648438e+04
    1.2479986064e-02    8.4183960938e+04
    1.2489842251e-02    8.4160148438e+04
    1.2499972247e-02    8.4135921875e+04
    1.2509828433e-02    8.4112421875e+04
    1.2519958429e-02    8.4088406250e+04
    1.2529815547e-02    8.4065203125e+04
    1.2539946474e-02    8.4041531250e+04
    1.2549803592e-02    8.4018617188e+04
    1.2559934519e-02    8.3995234375e+04
    1.2569791637e-02    8.3972656250e+04
    1.2579923496e-02    8.3949695312e+04
    1.2589780614e-02    8.3927500000e+04
    1.2599912472e-02    8.3904695312e+04
    1.2609771453e-02    8.3882812500e+04
    1.2619903311e-02    8.3860757812e+04
    1.2629762292e-02    8.3839351562e+04
    1.2639895082e-02    8.3817414062e+04
    1.2649753131e-02    8.3796265625e+04
    1.2659885921e-02    8.3774515625e+04
    1.2669745833e-02    8.3753640625e+04
    1.2679879554e-02    8.3732250000e+04
    1.2689739466e-02    8.3711460938e+04
    1.2699873187e-02    8.3690492188e+04
    1.2709733099e-02    8.3670171875e+04
    1.2719866820e-02    8.3649570312e+04
    1.2729726732e-02    8.3630023438e+04
    1.2739861384e-02    8.3609953125e+04
    1.2749996036e-02    8.3590203125e+04
    1.2759857811e-02    8.3570960938e+04
    1.2769992463e-02    8.3551320312e+04
    1.2779853307e-02    8.3532335938e+04
    1.2789988890e-02    8.3513031250e+04
    1.2799850665e-02    8.3494335938e+04
    1.2809986249e-02    8.3475328125e+04
    1.2819848023e-02    8.3456820312e+04
    1.2829984538e-02    8.3437992188e+04
    1.2839846313e-02    8.3419914062e+04
    1.2849982828e-02    8.3401710938e+04
    1.2859845534e-02    8.3384250000e+04
    1.2869982049e-02    8.3366335938e+04
    1.2879844755e-02    8.3349015625e+04
    1.2889982201e-02    8.3331367188e+04
    1.2899845839e-02    8.3314390625e+04
    1.2909983285e-02    8.3297171875e+04
    1.2919846922e-02    8.3280531250e+04
    1.2929984368e-02    8.3263656250e+04
    1.2939848006e-02    8.3247234375e+04
    1.2949986383e-02    8.3230695312e+04
    1.2959850021e-02    8.3214875000e+04
    1.2969988398e-02    8.3198679688e+04
    1.2979852967e-02    8.3183007812e+04
    1.2989992276e-02    8.3167148438e+04
    1.2999856845e-02    8.3151726562e+04
    1.3009995222e-02    8.3136250000e+04
    1.3019860722e-02    8.3121898438e+04
    1.3030000031e-02    8.3106429688e+04
    1.3039865531e-02    8.3091632812e+04
    1.3049731031e-02    8.3077289062e+04
    1.3059870340e-02    8.3062375000e+04
    1.3069735840e-02    8.3048460938e+04
    1.3079876080e-02    8.3034078125e+04
    1.3089741580e-02    8.3020093750e+04
    1.3099881820e-02    8.3005890625e+04
    1.3109748252e-02    8.2992414062e+04
    1.3119888492e-02    8.2978937500e+04
    1.3129754923e-02    8.2965921875e+04
    1.3139896095e-02    8.2952507812e+04
    1.3149762526e-02    8.2939765625e+04
    1.3159903698e-02    8.2926898438e+04
    1.3169771060e-02    8.2914609375e+04
    1.3179912232e-02    8.2902007812e+04
    1.3189779595e-02    8.2889750000e+04
    1.3199920766e-02    8.2877281250e+04
    1.3209788129e-02    8.2865531250e+04
    1.3219929300e-02    8.2853789062e+04
    1.3229797594e-02    8.2842273438e+04
    1.3239938766e-02    8.2830664062e+04
    1.3249807060e-02    8.2819562500e+04
    1.3259949163e-02    8.2808398438e+04
    1.3269817457e-02    8.2797507812e+04
    1.3279959559e-02    8.2786609375e+04
    1.3289827853e-02    8.2776085938e+04
    1.3299969956e-02    8.2765390625e+04
    1.3309839182e-02    8.2755109375e+04
    1.3319981284e-02    8.2744757812e+04
    1.3329850510e-02    8.2735062500e+04
    1.3339992613e-02    8.2725257812e+04
    1.3349861838e-02    8.2715820312e+04
    1.3359731063e-02    8.2706359375e+04
    1.3369874097e-02    8.2696820312e+04
    1.3379743323e-02    8.2687757812e+04
    1.3389886357e-02    8.2678648438e+04
    1.3399755582e-02    8.2669875000e+04
    1.3409898616e-02    8.2661359375e+04
    1.3419767842e-02    8.2652906250e+04
    1.3429910876e-02    8.2644421875e+04
    1.3439781033e-02    8.2636421875e+04
    1.3449924067e-02    8.2628187500e+04
    1.3459794223e-02    8.2620765625e+04
    1.3469937257e-02    8.2612984375e+04
    1.3479807414e-02    8.2605632812e+04
    1.3489951380e-02    8.2598101562e+04
    1.3499820605e-02    8.2590835938e+04
    1.3509964570e-02    8.2583640625e+04
    1.3519833796e-02    8.2576789062e+04
    1.3529977761e-02    8.2569937500e+04
    1.3539847918e-02    8.2563562500e+04
    1.3549991883e-02    8.2556937500e+04
    1.3559862040e-02    8.2550750000e+04
    1.3569732197e-02    8.2544625000e+04
    1.3579876162e-02    8.2538578125e+04
    1.3589745387e-02    8.2532875000e+04
    1.3599889353e-02    8.2527062500e+04
    1.3609759510e-02    8.2521648438e+04
    1.3619903475e-02    8.2516148438e+04
    1.3629773632e-02    8.2510921875e+04
    1.3639917597e-02    8.2505820312e+04
    1.3649787754e-02    8.2501039062e+04
    1.3659931719e-02    8.2496320312e+04
    1.3669801876e-02    8.2491828125e+04
    1.3679945841e-02    8.2487171875e+04
    1.3689815998e-02    8.2482992188e+04
    1.3699959964e-02    8.2479000000e+04
    1.3709830120e-02    8.2474945312e+04
    1.3719974086e-02    8.2471093750e+04
    1.3729843311e-02    8.2467726562e+04
    1.3739987276e-02    8.2464085938e+04
    1.3749857433e-02    8.2460679688e+04
    1.3759727590e-02    8.2457554688e+04
    1.3769871555e-02    8.2454640625e+04
    1.3779740781e-02    8.2452000000e+04
    1.3789884746e-02    8.2449234375e+04
    1.3799754903e-02    8.2446812500e+04
    1.3809898868e-02    8.2444273438e+04
    1.3819769025e-02    8.2442195312e+04
    1.3829912990e-02    8.2440171875e+04
    1.3839782216e-02    8.2438304688e+04
    1.3849926181e-02    8.2436828125e+04
    1.3859796338e-02    8.2435257812e+04
    1.3869939372e-02    8.2434085938e+04
    1.3879809529e-02    8.2432992188e+04
    1.3889953494e-02    8.2432156250e+04
    1.3899822719e-02    8.2431320312e+04
    1.3909966685e-02    8.2430773438e+04
    1.3919835910e-02    8.2430195312e+04
    1.3929979876e-02    8.2429710938e+04
    1.3939849101e-02    8.2429257812e+04
    1.3949993066e-02    8.2429046875e+04
    1.3959862292e-02    8.2428921875e+04
    1.3969732448e-02    8.2429156250e+04
    1.3979875483e-02    8.2429796875e+04
    1.3989744708e-02    8.2430781250e+04
    1.3999888673e-02    8.2432296875e+04
    1.4009757899e-02    8.2434218750e+04
    1.4019900933e-02    8.2436585938e+04
    1.4029770158e-02    8.2439085938e+04
    1.4039914124e-02    8.2441742188e+04
    1.4049783349e-02    8.2444351562e+04
    1.4059926383e-02    8.2446960938e+04
    1.4069795609e-02    8.2449289062e+04
    1.4079939574e-02    8.2451601562e+04
    1.4089808799e-02    8.2454062500e+04
    1.4099951833e-02    8.2456484375e+04
    1.4109821059e-02    8.2458585938e+04
    1.4119965024e-02    8.2461421875e+04
    1.4129835181e-02    8.2464929688e+04
    1.4139979146e-02    8.2468476562e+04
    1.4149849303e-02    8.2472367188e+04
    1.4159994200e-02    8.2477265625e+04
    1.4169864357e-02    8.2481960938e+04
    1.4179735444e-02    8.2486851562e+04
    1.4189881273e-02    8.2492835938e+04
    1.4199752361e-02    8.2498562500e+04
    1.4209899120e-02    8.2504890625e+04
    1.4219771139e-02    8.2511492188e+04
    1.4229917899e-02    8.2518242188e+04
    1.4239790849e-02    8.2525453125e+04
    1.4249938540e-02    8.2532859375e+04
    1.4259812422e-02    8.2540335938e+04
    1.4269961044e-02    8.2548132812e+04
    1.4279834926e-02    8.2555929688e+04
    1.4289984480e-02    8.2564093750e+04
    1.4299859293e-02    8.2572140625e+04
    1.4309735037e-02    8.2580250000e+04
    1.4319885522e-02    8.2588695312e+04
    1.4329763129e-02    8.2597140625e+04
    1.4339914545e-02    8.2606242188e+04
    1.4349791221e-02    8.2615523438e+04
    1.4359943569e-02    8.2625437500e+04
    1.4369822107e-02    8.2635390625e+04
    1.4379974455e-02    8.2646171875e+04
    1.4389852993e-02    8.2657382812e+04
    1.4399731532e-02    8.2669093750e+04
    1.4409886673e-02    8.2681328125e+04
    1.4419768006e-02    8.2693687500e+04
    1.4429924078e-02    8.2706882812e+04
    1.4439806342e-02    8.2719585938e+04
    1.4449964277e-02    8.2732914062e+04
    1.4459849335e-02    8.2746765625e+04
    1.4469733462e-02    8.2760445312e+04
    1.4479893260e-02    8.2774179688e+04
    1.4489778318e-02    8.2788453125e+04
    1.4499939047e-02    8.2803578125e+04
    1.4509823173e-02    8.2818234375e+04
    1.4519983903e-02    8.2834039062e+04
    1.4529871754e-02    8.2850148438e+04
    1.4539759606e-02    8.2866429688e+04
    1.4549920335e-02    8.2883648438e+04
    1.4559808187e-02    8.2901062500e+04
    1.4569974504e-02    8.2919125000e+04
    1.4579867013e-02    8.2937109375e+04
    1.4589758590e-02    8.2955484375e+04
    1.4599924907e-02    8.2974484375e+04
    1.4609820209e-02    8.2993312500e+04
    1.4619991183e-02    8.3012976562e+04
    1.4629889280e-02    8.3032554688e+04
    1.4639788307e-02    8.3052656250e+04
    1.4649963006e-02    8.3073820312e+04
    1.4659862965e-02    8.3094867188e+04
    1.4669762924e-02    8.3116265625e+04
    1.4679941349e-02    8.3138656250e+04
    1.4689846896e-02    8.3160867188e+04
    1.4699751511e-02    8.3183460938e+04
    1.4709928073e-02    8.3207000000e+04
    1.4719832689e-02    8.3230156250e+04
    1.4729742892e-02    8.3253554688e+04
    1.4739930630e-02    8.3277882812e+04
    1.4749841765e-02    8.3301992188e+04
    1.4759753831e-02    8.3326656250e+04
    1.4769942500e-02    8.3352484375e+04
    1.4779859222e-02    8.3377914062e+04
    1.4789779671e-02    8.3403812500e+04
    1.4799976721e-02    8.3430867188e+04
    1.4809896238e-02    8.3457156250e+04
    1.4819816686e-02    8.3483625000e+04
    1.4829739928e-02    8.3510820312e+04
    1.4839943498e-02    8.3539054688e+04
    1.4849875122e-02    8.3566570312e+04
    1.4859803952e-02    8.3594953125e+04
    1.4869731851e-02    8.3624226562e+04
    1.4879941009e-02    8.3654656250e+04
    1.4889879152e-02    8.3684835938e+04
    1.4899820089e-02    8.3715726562e+04
    1.4909759164e-02    8.3746890625e+04
    1.4919972979e-02    8.3778945312e+04
    1.4929913916e-02    8.3810304688e+04
    1.4939859509e-02    8.3841726562e+04
    1.4949810691e-02    8.3873195312e+04
    1.4959761873e-02    8.3904843750e+04
    1.4969987795e-02    8.3937570312e+04
    1.4979938976e-02    8.3969710938e+04
    1.4989893883e-02    8.4002320312e+04
    1.4999854378e-02    8.4035593750e+04
    1.5009815805e-02    8.4069632812e+04
    1.5019777231e-02    8.4104445312e+04
    1.5029738657e-02    8.4139898438e+04
    1.5039980412e-02    8.4176906250e+04
    1.5049951151e-02    8.4213421875e+04
    1.5059925616e-02    8.4250445312e+04
    1.5069898218e-02    8.4287953125e+04
    1.5079870820e-02    8.4325898438e+04
    1.5089848079e-02    8.4364210938e+04
    1.5099829994e-02    8.4402804688e+04
    1.5109814703e-02    8.4441617188e+04
    1.5119798481e-02    8.4480679688e+04
    1.5129782259e-02    8.4520070312e+04
    1.5139767900e-02    8.4559750000e+04
    1.5149759129e-02    8.4599625000e+04
    1.5159755945e-02    8.4639851562e+04
    1.5169755556e-02    8.4680640625e+04
    1.5179754235e-02    8.4721812500e+04
    1.5189752914e-02    8.4763242188e+04
    1.5199754387e-02    8.4805304688e+04
    1.5209762380e-02    8.4848046875e+04
    1.5219773166e-02    8.4891007812e+04
    1.5229783021e-02    8.4934375000e+04
    1.5239792876e-02    8.4978523438e+04
    1.5249806456e-02    8.5023109375e+04
    1.5259821899e-02    8.5068054688e+04
    1.5269840136e-02    8.5113765625e+04
    1.5279861167e-02    8.5160148438e+04
    1.5289884992e-02    8.5206960938e+04
    1.5299911611e-02    8.5254289062e+04
    1.5309940092e-02    8.5302109375e+04
    1.5319972299e-02    8.5350296875e+04
    1.5329729766e-02    8.5397539062e+04
    1.5339765698e-02    8.5446523438e+04
    1.5349802561e-02    8.5495859375e+04
    1.5359845012e-02    8.5545609375e+04
    1.5369892120e-02    8.5595921875e+04
    1.5379941091e-02    8.5646921875e+04
    1.5389990062e-02    8.5698695312e+04
    1.5399760567e-02    8.5749796875e+04
    1.5409814194e-02    8.5803171875e+04
    1.5419872478e-02    8.5857437500e+04
    1.5429930761e-02    8.5912671875e+04
    1.5439993702e-02    8.5968953125e+04
    1.5449779108e-02    8.6024640625e+04
    1.5459842980e-02    8.6082859375e+04
    1.5469908714e-02    8.6142046875e+04
    1.5479980037e-02    8.6202242188e+04
    1.5489775687e-02    8.6261757812e+04
    1.5499852598e-02    8.6323976562e+04
    1.5509931371e-02    8.6387187500e+04
    1.5519731678e-02    8.6449445312e+04
    1.5529816039e-02    8.6514203125e+04
    1.5539902262e-02    8.6579687500e+04
    1.5549988486e-02    8.6645882812e+04
    1.5559799969e-02    8.6710773438e+04
    1.5569897369e-02    8.6778062500e+04
    1.5579995699e-02    8.6846125000e+04
    1.5589815564e-02    8.6913226562e+04
    1.5599918552e-02    8.6988109375e+04
    1.5609742142e-02    8.7151554688e+04
    1.5619846992e-02    8.8654375000e+04
    1.5629954636e-02    9.5588687500e+04
    1.5639787540e-02    9.6214648438e+04
    1.5649905428e-02    9.6537976562e+04
    1.5659740195e-02    9.6188976562e+04
    1.5669856220e-02    9.6339625000e+04
    1.5679977834e-02    9.6247117188e+04
    1.5689821914e-02    9.6182851562e+04
    1.5699949116e-02    9.6172781250e+04
    1.5709798783e-02    9.6103093750e+04
    1.5719935298e-02    9.6058226562e+04
    1.5729790553e-02    9.6033523438e+04
    1.5739927068e-02    9.5972351562e+04
    1.5749786049e-02    9.5931851562e+04
    1.5759931877e-02    9.5904289062e+04
    1.5769800171e-02    9.5850960938e+04
    1.5779951587e-02    9.5807781250e+04
    1.5789823607e-02    9.5785031250e+04
    1.5799984336e-02    9.5738523438e+04
    1.5809861943e-02    9.5693523438e+04
    1.5819739550e-02    9.5670304688e+04
    1.5829904005e-02    9.5633273438e+04
    1.5839792788e-02    9.5589992188e+04
    1.5849966556e-02    9.5558210938e+04
    1.5859855339e-02    9.5532601562e+04
    1.5869749710e-02    9.5495867188e+04
    1.5879929066e-02    9.5457781250e+04
    1.5889825299e-02    9.5433539062e+04
    1.5899721533e-02    9.5406945312e+04
    1.5909904614e-02    9.5370835938e+04
    1.5919813886e-02    9.5340304688e+04
    1.5929719433e-02    9.5317367188e+04
    1.5939909965e-02    9.5290226562e+04
    1.5949819237e-02    9.5260656250e+04
    1.5959732234e-02    9.5233054688e+04
    1.5969926491e-02    9.5208218750e+04
    1.5979837626e-02    9.5186093750e+04
    1.5989756212e-02    9.5162148438e+04
    1.5999963507e-02    9.5135648438e+04
    1.6009883955e-02    9.5111320312e+04
    1.6019800678e-02    9.5091250000e+04
    1.6029721126e-02    9.5071960938e+04
    1.6039926559e-02    9.5049718750e+04
    1.6049843282e-02    9.5027851562e+04
    1.6059752554e-02    9.5008835938e+04
    1.6069935635e-02    9.4990835938e+04
    1.6079833731e-02    9.4973304688e+04
    1.6089726239e-02    9.4955500000e+04
    1.6099896282e-02    9.4937156250e+04
    1.6109788790e-02    9.4920476562e+04
    1.6119809821e-02    9.4903375000e+04
    1.6129720956e-02    9.4888429688e+04
    1.6139803454e-02    9.4873218750e+04
    1.6149749979e-02    9.4859226562e+04
    1.6159858555e-02    9.4845148438e+04
    1.6169810668e-02    9.4831437500e+04
    1.6179913655e-02    9.4818914062e+04
    1.6189835966e-02    9.4806882812e+04
    1.6199899837e-02    9.4795414062e+04
    1.6209771857e-02    9.4784812500e+04
    1.6219774261e-02    9.4774445312e+04
    1.6229905188e-02    9.4764476562e+04
    1.6239816323e-02    9.4755117188e+04
    1.6249852255e-02    9.4746156250e+04
    1.6259655356e-02    9.4738148438e+04
    1.6269914806e-02    9.4730398438e+04
    1.6279933974e-02    9.4723406250e+04
    1.6289692372e-02    9.4717070312e+04
    1.6299916431e-02    9.4710851562e+04
    1.6309861094e-02    9.4705429688e+04
    1.6319883987e-02    9.4700593750e+04
    1.6329977661e-02    9.4696195312e+04
    1.6339749098e-02    9.4692382812e+04
    1.6349993646e-02    9.4688968750e+04
    1.6359988600e-02    9.4686304688e+04
    1.6369856894e-02    9.4684242188e+04
    1.6379991546e-02    9.4682468750e+04
    1.6389880329e-02    9.4681507812e+04
    1.6399798915e-02    9.4681312500e+04
    1.6409736127e-02    9.4681656250e+04
    1.6419952735e-02    9.4682304688e+04
    1.6429906711e-02    9.4683445312e+04
    1.6439868137e-02    9.4685023438e+04
    1.6449831426e-02    9.4686992188e+04
    1.6459798440e-02    9.4689664062e+04
    1.6469767317e-02    9.4692687500e+04
    1.6479738057e-02    9.4696429688e+04
    1.6489980742e-02    9.4700601562e+04
    1.6499957070e-02    9.4705492188e+04
    1.6509933397e-02    9.4710445312e+04
    1.6519911587e-02    9.4716382812e+04
    1.6529889777e-02    9.4722273438e+04
    1.6539867967e-02    9.4729148438e+04
    1.6549846157e-02    9.4736226562e+04
    1.6559826210e-02    9.4744031250e+04
    1.6569804400e-02    9.4752375000e+04
    1.6579782590e-02    9.4761093750e+04
    1.6589762643e-02    9.4770187500e+04
    1.6599740833e-02    9.4779523438e+04
    1.6609989107e-02    9.4789375000e+04
    1.6619967297e-02    9.4799335938e+04
    1.6629945487e-02    9.4809781250e+04
    1.6639923677e-02    9.4820804688e+04
    1.6649900004e-02    9.4832445312e+04
    1.6659878194e-02    9.4844726562e+04
    1.6669856384e-02    9.4857585938e+04
    1.6679832712e-02    9.4870820312e+04
    1.6689810902e-02    9.4884148438e+04
    1.6699787229e-02    9.4897414062e+04
    1.6709763557e-02    9.4910601562e+04
    1.6719739884e-02    9.4923718750e+04
    1.6729986295e-02    9.4937187500e+04
    1.6739960760e-02    9.4950570312e+04
    1.6749937087e-02    9.4964273438e+04
    1.6759913415e-02    9.4978070312e+04
    1.6769887879e-02    9.4991867188e+04
    1.6779862344e-02    9.5005757812e+04
    1.6789836809e-02    9.5019648438e+04
    1.6799811274e-02    9.5033343750e+04
    1.6809785739e-02    9.5046843750e+04
    1.6819760203e-02    9.5060164062e+04
    1.6829734668e-02    9.5073281250e+04
    1.6839977354e-02    9.5086476562e+04
    1.6849949956e-02    9.5099187500e+04
    1.6859922558e-02    9.5111726562e+04
    1.6869895160e-02    9.5123960938e+04
    1.6879867762e-02    9.5136070312e+04
    1.6889840364e-02    9.5147976562e+04
    1.6899812967e-02    9.5159875000e+04
    1.6909783706e-02    9.5171687500e+04
    1.6919756308e-02    9.5183632812e+04
    1.6929998994e-02    9.5195992188e+04
    1.6939973459e-02    9.5208125000e+04
    1.6949947923e-02    9.5220164062e+04
    1.6959922388e-02    9.5231835938e+04
    1.6969900578e-02    9.5242664062e+04
    1.6979882494e-02    9.5252273438e+04
    1.6989868134e-02    9.5260312500e+04
    1.6999857500e-02    9.5266726562e+04
    1.7009850591e-02    9.5271742188e+04
    1.7019849271e-02    9.5275851562e+04
    1.7029857263e-02    9.5279789062e+04
    1.7039874569e-02    9.5284210938e+04
    1.7049899325e-02    9.5289507812e+04
    1.7059929669e-02    9.5295867188e+04
    1.7069974914e-02    9.5303101562e+04
    1.7079764977e-02    9.5310460938e+04
    1.7089838162e-02    9.5317960938e+04
    1.7099920660e-02    9.5325125000e+04
    1.7109742388e-02    9.5331726562e+04
    1.7119852826e-02    9.5338289062e+04
    1.7129978165e-02    9.5344835938e+04
    1.7139844596e-02    9.5351273438e+04
    1.7149999738e-02    9.5357882812e+04
    1.7159894109e-02    9.5364367188e+04
    1.7169801518e-02    9.5370960938e+04
    1.7179999501e-02    9.5377750000e+04
    1.7189936712e-02    9.5384281250e+04
    1.7199883237e-02    9.5390757812e+04
    1.7209840938e-02    9.5397242188e+04
    1.7219807953e-02    9.5403718750e+04
    1.7229788005e-02    9.5410179688e+04
    1.7239773646e-02    9.5416726562e+04
    1.7249768600e-02    9.5423335938e+04
    1.7259778455e-02    9.5429976562e+04
    1.7269797623e-02    9.5436664062e+04
    1.7279826105e-02    9.5443351562e+04
    1.7289862037e-02    9.5450031250e+04
    1.7299903557e-02    9.5456687500e+04
    1.7309952527e-02    9.5463343750e+04
    1.7319725826e-02    9.5469835938e+04
    1.7329789698e-02    9.5476539062e+04
    1.7339862883e-02    9.5483335938e+04
    1.7349939793e-02    9.5490148438e+04
    1.7359741032e-02    9.5496773438e+04
    1.7369829118e-02    9.5503562500e+04
    1.7379919067e-02    9.5510343750e+04
    1.7389733344e-02    9.5516937500e+04
    1.7399834469e-02    9.5523750000e+04
    1.7409941182e-02    9.5530585938e+04
    1.7419768497e-02    9.5537273438e+04
    1.7429880798e-02    9.5544148438e+04
    1.7439721152e-02    9.5550851562e+04
    1.7449846491e-02    9.5557750000e+04
    1.7459973693e-02    9.5564656250e+04
    1.7469825223e-02    9.5571398438e+04
    1.7479961738e-02    9.5578335938e+04
    1.7489818856e-02    9.5585101562e+04
    1.7499959096e-02    9.5592039062e+04
    1.7509821802e-02    9.5598750000e+04
    1.7519965768e-02    9.5605656250e+04
    1.7529828474e-02    9.5612367188e+04
    1.7539972439e-02    9.5619218750e+04
    1.7549835145e-02    9.5625835938e+04
    1.7559980974e-02    9.5632648438e+04
    1.7569843680e-02    9.5639312500e+04
    1.7579987645e-02    9.5646164062e+04
    1.7589852214e-02    9.5652820312e+04
    1.7599999905e-02    9.5659710938e+04
    1.7609866336e-02    9.5666414062e+04
    1.7619734630e-02    9.5673070312e+04
    1.7629884183e-02    9.5679867188e+04
    1.7639752477e-02    9.5686414062e+04
    1.7649905756e-02    9.5693117188e+04
    1.7659775913e-02    9.5699648438e+04
    1.7669929191e-02    9.5706351562e+04
    1.7679803073e-02    9.5712843750e+04
    1.7689958215e-02    9.5719445312e+04
    1.7699833959e-02    9.5725773438e+04
    1.7709992826e-02    9.5732179688e+04
    1.7719870433e-02    9.5738367188e+04
    1.7729748040e-02    9.5744523438e+04
    1.7739910632e-02    9.5750812500e+04
    1.7749790102e-02    9.5756914062e+04
    1.7759954557e-02    9.5763210938e+04
    1.7769837752e-02    9.5769351562e+04
    1.7779720947e-02    9.5775476562e+04
    1.7789889127e-02    9.5781742188e+04
    1.7799774185e-02    9.5787726562e+04
    1.7809942365e-02    9.5793789062e+04
    1.7819831148e-02    9.5799585938e+04
    1.7829718068e-02    9.5805289062e+04
    1.7839889973e-02    9.5811062500e+04
    1.7849780619e-02    9.5816585938e+04
    1.7859952524e-02    9.5822210938e+04
    1.7869845033e-02    9.5827648438e+04
    1.7879735678e-02    9.5833085938e+04
    1.7889911309e-02    9.5838617188e+04
    1.7899803817e-02    9.5843960938e+04
    1.7909979448e-02    9.5849445312e+04
    1.7919873819e-02    9.5854750000e+04
    1.7929768190e-02    9.5860007812e+04
    1.7939945683e-02    9.5865320312e+04
    1.7949840054e-02    9.5870414062e+04
    1.7959736288e-02    9.5875437500e+04
    1.7969913781e-02    9.5880460938e+04
    1.7979810014e-02    9.5885226562e+04
    1.7989989370e-02    9.5890101562e+04
    1.7999885604e-02    9.5894812500e+04
    1.8009781837e-02    9.5899460938e+04
    1.8019961193e-02    9.5904164062e+04
    1.8029859290e-02    9.5908695312e+04
    1.8039755523e-02    9.5913187500e+04
    1.8049936742e-02    9.5917750000e+04
    1.8059834838e-02    9.5922117188e+04
    1.8069731072e-02    9.5926398438e+04
    1.8079912290e-02    9.5930664062e+04
    1.8089810386e-02    9.5934742188e+04
    1.8099989742e-02    9.5938851562e+04
    1.8109887838e-02    9.5942812500e+04
    1.8119785935e-02    9.5946710938e+04
    1.8129967153e-02    9.5950648438e+04
    1.8139865249e-02    9.5954398438e+04
    1.8149763346e-02    9.5958054688e+04
    1.8159944564e-02    9.5961742188e+04
    1.8169842660e-02    9.5965257812e+04
    1.8179742619e-02    9.5968695312e+04
    1.8189923838e-02    9.5972148438e+04
    1.8199821934e-02    9.5975414062e+04
    1.8209721893e-02    9.5978617188e+04
    1.8219903111e-02    9.5981835938e+04
    1.8229803070e-02    9.5984875000e+04
    1.8239984289e-02    9.5987929688e+04
    1.8249884248e-02    9.5990820312e+04
    1.8259782344e-02    9.5993664062e+04
    1.8269965425e-02    9.5996523438e+04
    1.8279865384e-02    9.5999210938e+04
    1.8289763480e-02    9.6001789062e+04
    1.8299946561e-02    9.6004398438e+04
    1.8309846520e-02    9.6006851562e+04
    1.8319746479e-02    9.6009289062e+04
    1.8329929560e-02    9.6011726562e+04
    1.8339829519e-02    9.6014031250e+04
    1.8349731341e-02    9.6016257812e+04
    1.8359914422e-02    9.6018437500e+04
    1.8369814381e-02    9.6020460938e+04
    1.8379999325e-02    9.6022500000e+04
    1.8389899284e-02    9.6024437500e+04
    1.8399801105e-02    9.6026304688e+04
    1.8409986049e-02    9.6028148438e+04
    1.8419887871e-02    9.6029851562e+04
    1.8429787830e-02    9.6031492188e+04
    1.8439972773e-02    9.6033101562e+04
    1.8449876457e-02    9.6034617188e+04
    1.8459778279e-02    9.6036070312e+04
    1.8469963223e-02    9.6037476562e+04
    1.8479866907e-02    9.6038773438e+04
    1.8489770591e-02    9.6039968750e+04
    1.8499957398e-02    9.6041117188e+04
    1.8509861082e-02    9.6042164062e+04
    1.8519764766e-02    9.6043156250e+04
    1.8529951572e-02    9.6044117188e+04
    1.8539855257e-02    9.6044976562e+04
    1.8549760804e-02    9.6045773438e+04
    1.8559949473e-02    9.6046476562e+04
    1.8569853157e-02    9.6047085938e+04
    1.8579760566e-02    9.6047632812e+04
    1.8589949235e-02    9.6048125000e+04
    1.8599854782e-02    9.6048539062e+04
    1.8609762192e-02    9.6048875000e+04
    1.8619952723e-02    9.6049148438e+04
    1.8629860133e-02    9.6049304688e+04
    1.8639767542e-02    9.6049406250e+04
    1.8649959937e-02    9.6049468750e+04
    1.8659867346e-02    9.6049523438e+04
    1.8669776618e-02    9.6049500000e+04
    1.8679969013e-02    9.6049398438e+04
    1.8689880148e-02    9.6049195312e+04
    1.8699789420e-02    9.6048906250e+04
    1.8709983677e-02    9.6048507812e+04
    1.8719894812e-02    9.6048039062e+04
    1.8729805946e-02    9.6047523438e+04
    1.8739718944e-02    9.6046960938e+04
    1.8749913201e-02    9.6046304688e+04
    1.8759826198e-02    9.6045593750e+04
    1.8769739196e-02    9.6044812500e+04
    1.8779937178e-02    9.6043945312e+04
    1.8789850175e-02    9.6043023438e+04
    1.8799765036e-02    9.6042007812e+04
    1.8809963018e-02    9.6040929688e+04
    1.8819879740e-02    9.6039812500e+04
    1.8829794601e-02    9.6038648438e+04
    1.8839994445e-02    9.6037375000e+04
    1.8849911168e-02    9.6036085938e+04
    1.8859827891e-02    9.6034718750e+04
    1.8869746476e-02    9.6033281250e+04
    1.8879948184e-02    9.6031726562e+04
    1.8889866769e-02    9.6030148438e+04
    1.8899785355e-02    9.6028523438e+04
    1.8909988925e-02    9.6026773438e+04
    1.8919907510e-02    9.6025007812e+04
    1.8929829821e-02    9.6023179688e+04
    1.8939750269e-02    9.6021289062e+04
    1.8949955702e-02    9.6019304688e+04
    1.8959876150e-02    9.6017320312e+04
    1.8969798461e-02    9.6015281250e+04
    1.8979722634e-02    9.6013164062e+04
    1.8989929929e-02    9.6010906250e+04
    1.8999852240e-02    9.6008664062e+04
    1.9009778276e-02    9.6006375000e+04
    1.9019985572e-02    9.6003968750e+04
    1.9029911608e-02    9.6001585938e+04
    1.9039837644e-02    9.5999125000e+04
    1.9049763680e-02    9.5996617188e+04
    1.9059974700e-02    9.5993976562e+04
    1.9069902599e-02    9.5991335938e+04
    1.9079830498e-02    9.5988601562e+04
    1.9089758396e-02    9.5985835938e+04
    1.9099971280e-02    9.5982937500e+04
    1.9109901041e-02    9.5980101562e+04
    1.9119830802e-02    9.5977218750e+04
    1.9129760563e-02    9.5974289062e+04
    1.9139975309e-02    9.5971210938e+04
    1.9149906933e-02    9.5968117188e+04
    1.9159838557e-02    9.5964960938e+04
    1.9169772044e-02    9.5961757812e+04
    1.9179988652e-02    9.5958398438e+04
    1.9189922139e-02    9.5955085938e+04
    1.9199855626e-02    9.5951757812e+04
    1.9209790975e-02    9.5948414062e+04
    1.9219726324e-02    9.5945054688e+04
    1.9229944795e-02    9.5941601562e+04
    1.9239882007e-02    9.5938250000e+04
    1.9249817356e-02    9.5934875000e+04
    1.9259754568e-02    9.5931437500e+04
    1.9269976765e-02    9.5927820312e+04
    1.9279915839e-02    9.5924226562e+04
    1.9289853051e-02    9.5920554688e+04
    1.9299792126e-02    9.5916820312e+04
    1.9309733063e-02    9.5913023438e+04
    1.9319957122e-02    9.5909054688e+04
    1.9329898059e-02    9.5905148438e+04
    1.9339838997e-02    9.5901179688e+04
    1.9349779934e-02    9.5897195312e+04
    1.9359722733e-02    9.5893218750e+04
    1.9369950518e-02    9.5889125000e+04
    1.9379893318e-02    9.5885101562e+04
    1.9389837980e-02    9.5881023438e+04
    1.9399780780e-02    9.5876851562e+04
    1.9409725443e-02    9.5872632812e+04
    1.9419955090e-02    9.5868250000e+04
    1.9429901615e-02    9.5863976562e+04
    1.9439848140e-02    9.5859710938e+04
[...]
    1.1513974518e-01    1.0121134375e+05
    1.1514972150e-01    1.0121133594e+05
    1.1515969783e-01    1.0121133594e+05
    1.1516997963e-01    1.0121133594e+05
    1.1517995596e-01    1.0121133594e+05
    1.1518992484e-01    1.0121133594e+05
    1.1519990116e-01    1.0121132031e+05
    1.1520987749e-01    1.0121132031e+05
    1.1521984637e-01    1.0121132031e+05
    1.1522982270e-01    1.0121131250e+05
    1.1523979902e-01    1.0121131250e+05
    1.1524976790e-01    1.0121131250e+05
    1.1525974423e-01    1.0121130469e+05
    1.1526972055e-01    1.0121130469e+05
    1.1527968943e-01    1.0121128906e+05
    1.1528997868e-01    1.0121128906e+05
    1.1529995501e-01    1.0121128906e+05
    1.1530992389e-01    1.0121128906e+05
    1.1531990021e-01    1.0121128906e+05
    1.1532987654e-01    1.0121128906e+05
    1.1533984542e-01    1.0121128125e+05
    1.1534982175e-01    1.0121128125e+05
    1.1535979807e-01    1.0121128125e+05
    1.1536976695e-01    1.0121127344e+05
    1.1537974328e-01    1.0121127344e+05
    1.1538971961e-01    1.0121127344e+05
    1.1539968848e-01    1.0121127344e+05
    1.1540997773e-01    1.0121127344e+05
    1.1541994661e-01    1.0121125781e+05
    1.1542992294e-01    1.0121125781e+05
    1.1543989927e-01    1.0121125000e+05
    1.1544986814e-01    1.0121125000e+05
    1.1545984447e-01    1.0121125000e+05
    1.1546982080e-01    1.0121124219e+05
    1.1547978967e-01    1.0121124219e+05
    1.1548976600e-01    1.0121124219e+05
    1.1549974233e-01    1.0121122656e+05
    1.1550971121e-01    1.0121122656e+05
    1.1552000046e-01    1.0121122656e+05
    1.1552996933e-01    1.0121122656e+05
    1.1553994566e-01    1.0121122656e+05
    1.1554992199e-01    1.0121122656e+05
    1.1555989087e-01    1.0121121875e+05
    1.1556986719e-01    1.0121121875e+05
    1.1557984352e-01    1.0121121094e+05
    1.1558981240e-01    1.0121121094e+05
    1.1559978873e-01    1.0121121094e+05
    1.1560976505e-01    1.0121121094e+05
    1.1561973393e-01    1.0121121094e+05
    1.1562971026e-01    1.0121119531e+05
    1.1563999951e-01    1.0121119531e+05
    1.1564996839e-01    1.0121119531e+05
    1.1565994471e-01    1.0121118750e+05
    1.1566992104e-01    1.0121118750e+05
    1.1567988992e-01    1.0121118750e+05
    1.1568986624e-01    1.0121117969e+05
    1.1569984257e-01    1.0121117969e+05
    1.1570981145e-01    1.0121116406e+05
    1.1571978778e-01    1.0121116406e+05
    1.1572976410e-01    1.0121116406e+05
    1.1573973298e-01    1.0121116406e+05
    1.1574970931e-01    1.0121116406e+05
    1.1575999111e-01    1.0121115625e+05
    1.1576996744e-01    1.0121115625e+05
    1.1577994376e-01    1.0121115625e+05
    1.1578991264e-01    1.0121114844e+05
    1.1579988897e-01    1.0121114844e+05
    1.1580986530e-01    1.0121114844e+05
    1.1581983417e-01    1.0121114844e+05
    1.1582981050e-01    1.0121114844e+05
    1.1583978683e-01    1.0121114844e+05
    1.1584975570e-01    1.0121114844e+05
    1.1585973203e-01    1.0121113281e+05
    1.1586970836e-01    1.0121113281e+05
    1.1587999016e-01    1.0121112500e+05
    1.1588996649e-01    1.0121112500e+05
    1.1589993536e-01    1.0121111719e+05
    1.1590991169e-01    1.0121111719e+05
    1.1591988802e-01    1.0121110156e+05
    1.1592985690e-01    1.0121110156e+05
    1.1593983322e-01    1.0121110156e+05
    1.1594980955e-01    1.0121110156e+05
    1.1595977843e-01    1.0121110156e+05
    1.1596975476e-01    1.0121110156e+05
    1.1597973108e-01    1.0121109375e+05
    1.1598969996e-01    1.0121109375e+05
    1.1599998921e-01    1.0121108594e+05
    1.1600996554e-01    1.0121108594e+05
    1.1601993442e-01    1.0121108594e+05
    1.1602991074e-01    1.0121108594e+05
    1.1603988707e-01    1.0121108594e+05
    1.1604985595e-01    1.0121108594e+05
    1.1605983227e-01    1.0121107031e+05
    1.1606980860e-01    1.0121107031e+05
    1.1607977748e-01    1.0121107031e+05
    1.1608975381e-01    1.0121106250e+05
    1.1609973013e-01    1.0121106250e+05
    1.1610969901e-01    1.0121105469e+05
    1.1611998826e-01    1.0121105469e+05
    1.1612995714e-01    1.0121105469e+05
    1.1613993347e-01    1.0121103906e+05
    1.1614990979e-01    1.0121103906e+05
    1.1615987867e-01    1.0121103906e+05
    1.1616985500e-01    1.0121103906e+05
    1.1617983133e-01    1.0121103906e+05
    1.1618980020e-01    1.0121103906e+05
    1.1619977653e-01    1.0121103906e+05
    1.1620975286e-01    1.0121103125e+05
    1.1621972173e-01    1.0121103125e+05
    1.1622969806e-01    1.0121103125e+05
    1.1623998731e-01    1.0121102344e+05
    1.1624995619e-01    1.0121102344e+05
    1.1625993252e-01    1.0121102344e+05
    1.1626990885e-01    1.0121102344e+05
    1.1627987772e-01    1.0121102344e+05
    1.1628985405e-01    1.0121100781e+05
    1.1629983038e-01    1.0121100781e+05
    1.1630979925e-01    1.0121100000e+05
    1.1631977558e-01    1.0121100000e+05
    1.1632975191e-01    1.0121099219e+05
    1.1633972079e-01    1.0121099219e+05
    1.1634969711e-01    1.0121099219e+05
    1.1635997891e-01    1.0121097656e+05
    1.1636995524e-01    1.0121097656e+05
    1.1637993157e-01    1.0121097656e+05
    1.1638990045e-01    1.0121097656e+05
    1.1639987677e-01    1.0121097656e+05
    1.1640985310e-01    1.0121097656e+05
    1.1641982198e-01    1.0121097656e+05
    1.1642979831e-01    1.0121096875e+05
    1.1643977463e-01    1.0121096875e+05
    1.1644974351e-01    1.0121096875e+05
    1.1645971984e-01    1.0121096094e+05
    1.1646969616e-01    1.0121096094e+05
    1.1647997797e-01    1.0121096094e+05
    1.1648995429e-01    1.0121096094e+05
    1.1649993062e-01    1.0121094531e+05
    1.1650989950e-01    1.0121094531e+05
    1.1651987582e-01    1.0121093750e+05
    1.1652985215e-01    1.0121093750e+05
    1.1653982103e-01    1.0121093750e+05
    1.1654979736e-01    1.0121092969e+05
    1.1655977368e-01    1.0121092969e+05
    1.1656974256e-01    1.0121092969e+05
    1.1657971889e-01    1.0121092969e+05
    1.1658969522e-01    1.0121091406e+05
    1.1659997702e-01    1.0121091406e+05
    1.1660995334e-01    1.0121091406e+05
    1.1661992967e-01    1.0121091406e+05
    1.1662989855e-01    1.0121091406e+05
    1.1663987488e-01    1.0121091406e+05
    1.1664985120e-01    1.0121090625e+05
    1.1665982008e-01    1.0121090625e+05
    1.1666979641e-01    1.0121089844e+05
    1.1667977273e-01    1.0121089844e+05
    1.1668974161e-01    1.0121089844e+05
    1.1669971794e-01    1.0121089844e+05
    1.1670969427e-01    1.0121089844e+05
    1.1671997607e-01    1.0121088281e+05
    1.1672995239e-01    1.0121088281e+05
    1.1673992127e-01    1.0121088281e+05
    1.1674989760e-01    1.0121088281e+05
    1.1675987393e-01    1.0121087500e+05
    1.1676984280e-01    1.0121087500e+05
    1.1677981913e-01    1.0121087500e+05
    1.1678979546e-01    1.0121087500e+05
    1.1679976434e-01    1.0121086719e+05
    1.1680974066e-01    1.0121086719e+05
    1.1681971699e-01    1.0121085156e+05
    1.1682968587e-01    1.0121085156e+05
    1.1683997512e-01    1.0121085156e+05
    1.1684995145e-01    1.0121085156e+05
    1.1685992032e-01    1.0121085156e+05
    1.1686989665e-01    1.0121084375e+05
    1.1687987298e-01    1.0121084375e+05
    1.1688984185e-01    1.0121083594e+05
    1.1689981818e-01    1.0121083594e+05
    1.1690979451e-01    1.0121083594e+05
    1.1691976339e-01    1.0121083594e+05
    1.1692973971e-01    1.0121083594e+05
    1.1693971604e-01    1.0121083594e+05
    1.1694999784e-01    1.0121082031e+05
    1.1695997417e-01    1.0121082031e+05
    1.1696995050e-01    1.0121082031e+05
    1.1697991937e-01    1.0121081250e+05
    1.1698989570e-01    1.0121081250e+05
    1.1699987203e-01    1.0121081250e+05
    1.1700984091e-01    1.0121081250e+05
    1.1701981723e-01    1.0121080469e+05
    1.1702979356e-01    1.0121080469e+05
    1.1703976244e-01    1.0121080469e+05
    1.1704973876e-01    1.0121078906e+05
    1.1705971509e-01    1.0121078906e+05
    1.1706999689e-01    1.0121078906e+05
    1.1707997322e-01    1.0121078906e+05
    1.1708994210e-01    1.0121078906e+05
    1.1709991843e-01    1.0121078125e+05
    1.1710989475e-01    1.0121078125e+05
    1.1711986363e-01    1.0121078125e+05
    1.1712983996e-01    1.0121077344e+05
    1.1713981628e-01    1.0121077344e+05
    1.1714978516e-01    1.0121077344e+05
    1.1715976149e-01    1.0121077344e+05
    1.1716973782e-01    1.0121077344e+05
    1.1717970669e-01    1.0121075781e+05
    1.1718999594e-01    1.0121075781e+05
    1.1719997227e-01    1.0121075781e+05
    1.1720994115e-01    1.0121075781e+05
    1.1721991748e-01    1.0121075000e+05
    1.1722989380e-01    1.0121075000e+05
    1.1723986268e-01    1.0121074219e+05
    1.1724983901e-01    1.0121074219e+05
    1.1725981534e-01    1.0121074219e+05
    1.1726978421e-01    1.0121072656e+05
    1.1727976054e-01    1.0121072656e+05
    1.1728973687e-01    1.0121072656e+05
    1.1729970574e-01    1.0121072656e+05
    1.1730999500e-01    1.0121072656e+05
    1.1731997132e-01    1.0121072656e+05
    1.1732994020e-01    1.0121071875e+05
    1.1733991653e-01    1.0121071875e+05
    1.1734989285e-01    1.0121071875e+05
    1.1735986173e-01    1.0121071094e+05
    1.1736983806e-01    1.0121071094e+05
    1.1737981439e-01    1.0121071094e+05
    1.1738978326e-01    1.0121071094e+05
    1.1739975959e-01    1.0121071094e+05
    1.1740973592e-01    1.0121069531e+05
    1.1741970479e-01    1.0121069531e+05
    1.1742999405e-01    1.0121069531e+05
    1.1743996292e-01    1.0121068750e+05
    1.1744993925e-01    1.0121068750e+05
    1.1745991558e-01    1.0121068750e+05
    1.1746988446e-01    1.0121068750e+05
    1.1747986078e-01    1.0121068750e+05
    1.1748983711e-01    1.0121068750e+05
    1.1749980599e-01    1.0121067969e+05
    1.1750978231e-01    1.0121067969e+05
    1.1751975864e-01    1.0121067969e+05
    1.1752973497e-01    1.0121067969e+05
    1.1753970385e-01    1.0121066406e+05
    1.1754999310e-01    1.0121066406e+05
    1.1755996197e-01    1.0121066406e+05
    1.1756993830e-01    1.0121066406e+05
    1.1757991463e-01    1.0121065625e+05
    1.1758988351e-01    1.0121065625e+05
    1.1759985983e-01    1.0121064844e+05
    1.1760983616e-01    1.0121064844e+05
    1.1761980504e-01    1.0121064844e+05
    1.1762978137e-01    1.0121064844e+05
    1.1763975769e-01    1.0121063281e+05
    1.1764972657e-01    1.0121063281e+05
    1.1765970290e-01    1.0121063281e+05
    1.1766999215e-01    1.0121062500e+05
    1.1767996103e-01    1.0121062500e+05
    1.1768993735e-01    1.0121062500e+05
    1.1769991368e-01    1.0121062500e+05
    1.1770988256e-01    1.0121061719e+05
    1.1771985888e-01    1.0121061719e+05
    1.1772983521e-01    1.0121060156e+05
    1.1773980409e-01    1.0121060156e+05
    1.1774978042e-01    1.0121060156e+05
    1.1775975674e-01    1.0121059375e+05
    1.1776972562e-01    1.0121059375e+05
    1.1777970195e-01    1.0121058594e+05
    1.1778998375e-01    1.0121058594e+05
    1.1779996008e-01    1.0121058594e+05
    1.1780993640e-01    1.0121058594e+05
    1.1781990528e-01    1.0121058594e+05
    1.1782988161e-01    1.0121058594e+05
    1.1783985794e-01    1.0121058594e+05
    1.1784983426e-01    1.0121058594e+05
    1.1785980314e-01    1.0121058594e+05
    1.1786977947e-01    1.0121058594e+05
    1.1787975580e-01    1.0121058594e+05
    1.1788972467e-01    1.0121057031e+05
    1.1789970100e-01    1.0121056250e+05
    1.1790998280e-01    1.0121055469e+05
    1.1791995913e-01    1.0121053906e+05
    1.1792993546e-01    1.0121053906e+05
    1.1793990433e-01    1.0121053906e+05
    1.1794988066e-01    1.0121053125e+05
    1.1795985699e-01    1.0121053125e+05
    1.1796982586e-01    1.0121053906e+05
    1.1797980219e-01    1.0121053906e+05
    1.1798977852e-01    1.0121053906e+05
    1.1799974740e-01    1.0121053906e+05
    1.1800972372e-01    1.0121053125e+05
    1.1801970005e-01    1.0121053125e+05
    1.1802998185e-01    1.0121052344e+05
    1.1803995818e-01    1.0121052344e+05
    1.1804993451e-01    1.0121052344e+05
    1.1805990338e-01    1.0121050781e+05
    1.1806987971e-01    1.0121050781e+05
    1.1807985604e-01    1.0121050781e+05
    1.1808982491e-01    1.0121050000e+05
    1.1809980124e-01    1.0121050000e+05
    1.1810977757e-01    1.0121050000e+05
    1.1811974645e-01    1.0121050000e+05
    1.1812972277e-01    1.0121050000e+05
    1.1813969910e-01    1.0121050000e+05
    1.1814998090e-01    1.0121050000e+05
    1.1815995723e-01    1.0121050000e+05
    1.1816993356e-01    1.0121050000e+05
    1.1817990243e-01    1.0121049219e+05
    1.1818987876e-01    1.0121049219e+05
    1.1819985509e-01    1.0121049219e+05
    1.1820982397e-01    1.0121047656e+05
    1.1821980029e-01    1.0121047656e+05
    1.1822977662e-01    1.0121046875e+05
    1.1823974550e-01    1.0121046094e+05
    1.1824972183e-01    1.0121046094e+05
    1.1825969815e-01    1.0121046094e+05
    1.1826997995e-01    1.0121046094e+05
    1.1827995628e-01    1.0121046094e+05
    1.1828992516e-01    1.0121046094e+05
    1.1829990149e-01    1.0121046094e+05
    1.1830987781e-01    1.0121046094e+05
    1.1831984669e-01    1.0121046094e+05
    1.1832982302e-01    1.0121046094e+05
    1.1833979934e-01    1.0121046094e+05
    1.1834976822e-01    1.0121046094e+05
    1.1835974455e-01    1.0121044531e+05
    1.1836972088e-01    1.0121043750e+05
    1.1837968975e-01    1.0121043750e+05
    1.1838997900e-01    1.0121042969e+05
    1.1839995533e-01    1.0121042969e+05
    1.1840992421e-01    1.0121042969e+05
    1.1841990054e-01    1.0121042969e+05
    1.1842987686e-01    1.0121042969e+05
    1.1843984574e-01    1.0121043750e+05
    1.1844982207e-01    1.0121043750e+05
    1.1845979840e-01    1.0121043750e+05
    1.1846976727e-01    1.0121043750e+05
    1.1847974360e-01    1.0121042969e+05
    1.1848971993e-01    1.0121041406e+05
    1.1849968880e-01    1.0121041406e+05
    1.1850997806e-01    1.0121040625e+05
    1.1851995438e-01    1.0121040625e+05
    1.1852992326e-01    1.0121039844e+05
    1.1853989959e-01    1.0121039844e+05
    1.1854987592e-01    1.0121039844e+05
    1.1855984479e-01    1.0121039844e+05
    1.1856982112e-01    1.0121039844e+05
    1.1857979745e-01    1.0121038281e+05
    1.1858976632e-01    1.0121037500e+05
    1.1859974265e-01    1.0121037500e+05
    1.1860971898e-01    1.0121037500e+05
    1.1861968786e-01    1.0121037500e+05
    1.1862997711e-01    1.0121036719e+05
    1.1863994598e-01    1.0121036719e+05
    1.1864992231e-01    1.0121036719e+05
    1.1865989864e-01    1.0121036719e+05
    1.1866986752e-01    1.0121036719e+05
    1.1867984384e-01    1.0121035156e+05
    1.1868982017e-01    1.0121035156e+05
    1.1869978905e-01    1.0121035156e+05
    1.1870976537e-01    1.0121035156e+05
    1.1871974170e-01    1.0121035156e+05
    1.1872971058e-01    1.0121035156e+05
    1.1873999983e-01    1.0121034375e+05
    1.1874997616e-01    1.0121034375e+05
    1.1875994503e-01    1.0121034375e+05
    1.1876992136e-01    1.0121033594e+05
    1.1877989769e-01    1.0121033594e+05
    1.1878986657e-01    1.0121033594e+05
    1.1879984289e-01    1.0121033594e+05
    1.1880981922e-01    1.0121033594e+05
    1.1881978810e-01    1.0121033594e+05
    1.1882976443e-01    1.0121032031e+05
    1.1883974075e-01    1.0121032031e+05
    1.1884970963e-01    1.0121031250e+05
    1.1885999888e-01    1.0121031250e+05
    1.1886997521e-01    1.0121031250e+05
    1.1887994409e-01    1.0121030469e+05
    1.1888992041e-01    1.0121030469e+05
    1.1889989674e-01    1.0121030469e+05
    1.1890986562e-01    1.0121030469e+05
    1.1891984195e-01    1.0121028906e+05
    1.1892981827e-01    1.0121028906e+05
    1.1893978715e-01    1.0121028906e+05
    1.1894976348e-01    1.0121028906e+05
    1.1895973980e-01    1.0121028906e+05
    1.1896970868e-01    1.0121028906e+05
    1.1897999793e-01    1.0121028125e+05
    1.1898996681e-01    1.0121028125e+05
    1.1899994314e-01    1.0121027344e+05
    1.1900991946e-01    1.0121027344e+05
    1.1901989579e-01    1.0121027344e+05
    1.1902986467e-01    1.0121027344e+05
    1.1903984100e-01    1.0121027344e+05
    1.1904981732e-01    1.0121027344e+05
    1.1905978620e-01    1.0121027344e+05
    1.1906976253e-01    1.0121025781e+05
    1.1907973886e-01    1.0121025781e+05
    1.1908970773e-01    1.0121025781e+05
    1.1909999698e-01    1.0121025000e+05
    1.1910996586e-01    1.0121025000e+05
    1.1911994219e-01    1.0121024219e+05
    1.1912991852e-01    1.0121024219e+05
    1.1913988739e-01    1.0121024219e+05
    1.1914986372e-01    1.0121022656e+05
    1.1915984005e-01    1.0121022656e+05
    1.1916980892e-01    1.0121022656e+05
    1.1917978525e-01    1.0121022656e+05
    1.1918976158e-01    1.0121022656e+05
    1.1919973046e-01    1.0121022656e+05
    1.1920970678e-01    1.0121022656e+05
    1.1921999604e-01    1.0121021875e+05
    1.1922996491e-01    1.0121021875e+05
    1.1923994124e-01    1.0121021875e+05
    1.1924991757e-01    1.0121021875e+05
    1.1925988644e-01    1.0121021094e+05
    1.1926986277e-01    1.0121021094e+05
    1.1927983910e-01    1.0121021094e+05
    1.1928980798e-01    1.0121021094e+05
    1.1929978430e-01    1.0121021094e+05
    1.1930976063e-01    1.0121019531e+05
    1.1931972951e-01    1.0121019531e+05
    1.1932970583e-01    1.0121019531e+05
    1.1933999509e-01    1.0121018750e+05
    1.1934996396e-01    1.0121018750e+05
    1.1935994029e-01    1.0121018750e+05
    1.1936991662e-01    1.0121017969e+05
    1.1937988549e-01    1.0121017969e+05
    1.1938986182e-01    1.0121017969e+05
    1.1939983815e-01    1.0121017969e+05
    1.1940980703e-01    1.0121016406e+05
    1.1941978335e-01    1.0121016406e+05
    1.1942975968e-01    1.0121016406e+05
    1.1943972856e-01    1.0121016406e+05
    1.1944970489e-01    1.0121016406e+05
    1.1945998669e-01    1.0121015625e+05
    1.1946996301e-01    1.0121015625e+05
    1.1947993934e-01    1.0121014844e+05
    1.1948990822e-01    1.0121014844e+05
    1.1949988455e-01    1.0121014844e+05
    1.1950986087e-01    1.0121014844e+05
    1.1951983720e-01    1.0121014844e+05
    1.1952980608e-01    1.0121014844e+05
    1.1953978240e-01    1.0121014844e+05
    1.1954975873e-01    1.0121014844e+05
    1.1955972761e-01    1.0121013281e+05
    1.1956970394e-01    1.0121013281e+05
    1.1957998574e-01    1.0121013281e+05
    1.1958996207e-01    1.0121012500e+05
    1.1959993839e-01    1.0121012500e+05
    1.1960990727e-01    1.0121011719e+05
    1.1961988360e-01    1.0121011719e+05
    1.1962985992e-01    1.0121011719e+05
    1.1963982880e-01    1.0121010156e+05
    1.1964980513e-01    1.0121010156e+05
    1.1965978146e-01    1.0121010156e+05
    1.1966975033e-01    1.0121010156e+05
    1.1967972666e-01    1.0121010156e+05
    1.1968970299e-01    1.0121010156e+05
    1.1969998479e-01    1.0121010156e+05
    1.1970996112e-01    1.0121009375e+05
    1.1971993744e-01    1.0121009375e+05
    1.1972990632e-01    1.0121008594e+05
    1.1973988265e-01    1.0121008594e+05
    1.1974985898e-01    1.0121008594e+05
    1.1975982785e-01    1.0121008594e+05
    1.1976980418e-01    1.0121008594e+05
    1.1977978051e-01    1.0121008594e+05
    1.1978974938e-01    1.0121007031e+05
    1.1979972571e-01    1.0121007031e+05
    1.1980970204e-01    1.0121007031e+05
    1.1981998384e-01    1.0121006250e+05
    1.1982996017e-01    1.0121006250e+05
    1.1983993649e-01    1.0121006250e+05
    1.1984990537e-01    1.0121005469e+05
    1.1985988170e-01    1.0121005469e+05
    1.1986985803e-01    1.0121005469e+05
    1.1987982690e-01    1.0121005469e+05
    1.1988980323e-01    1.0121003906e+05
    1.1989977956e-01    1.0121003906e+05
    1.1990974844e-01    1.0121003906e+05
    1.1991972476e-01    1.0121003906e+05
    1.1992970109e-01    1.0121003906e+05
    1.1993998289e-01    1.0121003906e+05
    1.1994995922e-01    1.0121003906e+05
    1.1995993555e-01    1.0121003906e+05
    1.1996990442e-01    1.0121003125e+05
    1.1997988075e-01    1.0121003125e+05
    1.1998985708e-01    1.0121002344e+05
    1.1999982595e-01    1.0121002344e+05
endcurve
