Curveplot
LS-DYNA keyword deck by LS-PrePost                          
Time
Pressure
Defined Connection
Pressure @ 9 #pts=12001
* Minval=     8.0205835938e+04 at time=         0.0135099646
* Maxval=     2.3032568750e+05 at time=         0.0056299390
    0.0000000000e+00    1.0120000000e+05
    9.9485332612e-06    1.0120000000e+05
    1.9988623535e-05    1.0120000000e+05
    2.9974982681e-05    1.0120000000e+05
    3.9968475903e-05    1.0120000000e+05
    4.9964641221e-05    1.0120000000e+05
    5.9981401137e-05    1.0120000000e+05
    6.9966816227e-05    1.0120000000e+05
    7.9938989074e-05    1.0120000000e+05
    8.9962508355e-05    1.0120000000e+05
    9.9948483694e-05    1.0120000000e+05
    1.0995378398e-04    1.0120000000e+05
    1.1996556714e-04    1.0120000000e+05
    1.2997062004e-04    1.0120000000e+05
    1.3995663903e-04    1.0120000000e+05
    1.4999210543e-04    1.0120000000e+05
    1.5998588060e-04    1.0120000000e+05
    1.6992508608e-04    1.0120000000e+05
    1.7996835231e-04    1.0120000000e+05
    1.8993628328e-04    1.0120000000e+05
    1.9999317010e-04    1.0120000000e+05
    2.0995350496e-04    1.0120000000e+05
    2.1998734155e-04    1.0120000000e+05
    2.2999582870e-04    1.0120000000e+05
    2.3996761593e-04    1.0120000000e+05
    2.4997972650e-04    1.0120000000e+05
    2.5992124574e-04    1.0120000000e+05
    2.6998316753e-04    1.0120000000e+05
    2.7996828430e-04    1.0120000000e+05
    2.8997167828e-04    1.0120000000e+05
    2.9999201070e-04    1.0120000000e+05
    3.0992407119e-04    1.0120000000e+05
    3.1997065526e-04    1.0120000000e+05
    3.2992326305e-04    1.0120000000e+05
    3.3998923027e-04    1.0120000000e+05
    3.4995557508e-04    1.0120000000e+05
    3.5992590711e-04    1.0120000000e+05
    3.6989818909e-04    1.0120000000e+05
    3.7998225889e-04    1.0120000000e+05
    3.8995448267e-04    1.0120000000e+05
    3.9992172970e-04    1.0120000000e+05
    4.0988498949e-04    1.0120000000e+05
    4.1995817446e-04    1.0120000000e+05
    4.2990702786e-04    1.0120000000e+05
    4.3996388558e-04    1.0120000000e+05
    4.4988794252e-04    1.0120000000e+05
    4.5991834486e-04    1.0120000000e+05
    4.6993646538e-04    1.0120000000e+05
    4.7993828775e-04    1.0120000000e+05
    4.8992183292e-04    1.0120000000e+05
    4.9988494720e-04    1.0120000000e+05
    5.0995132187e-04    1.0120000000e+05
    5.1999802236e-04    1.0120000000e+05
    5.2988983225e-04    1.0120000000e+05
    5.3988478612e-04    1.0120000000e+05
    5.4998480482e-04    1.0120000000e+05
    5.5992178386e-04    1.0120000000e+05
    5.6996196508e-04    1.0120000000e+05
    5.7996663963e-04    1.0120000000e+05
    5.8993883431e-04    1.0120000000e+05
    5.9987336863e-04    1.0120000000e+05
    6.0990988277e-04    1.0120000000e+05
    6.1990640825e-04    1.0120000000e+05
    6.2986044213e-04    1.0120000000e+05
    6.3991575735e-04    1.0120000000e+05
    6.4992607804e-04    1.0120000000e+05
    6.5988529241e-04    1.0120000000e+05
    6.6994823283e-04    1.0120000000e+05
    6.7996070720e-04    1.0120000000e+05
    6.8991992157e-04    1.0120000000e+05
    6.9997826358e-04    1.0120000000e+05
    7.0998026058e-04    1.0120000000e+05
    7.1992294397e-04    1.0120000000e+05
    7.2996335803e-04    1.0120000000e+05
    7.3994131526e-04    1.0120000000e+05
    7.4984924868e-04    1.0120000000e+05
    7.5985299191e-04    1.0120000000e+05
    7.6995842392e-04    1.0120000000e+05
    7.7999453060e-04    1.0120000000e+05
    7.8995793592e-04    1.0120000000e+05
    7.9984508920e-04    1.0120000000e+05
    8.0999842612e-04    1.0120000000e+05
    8.1990048056e-04    1.0120000000e+05
    8.2989543444e-04    1.0120000000e+05
    8.3998439368e-04    1.0120000000e+05
    8.4998953389e-04    1.0120000000e+05
    8.5990718799e-04    1.0120000000e+05
    8.6991657736e-04    1.0120000000e+05
    8.7983434787e-04    1.0120000000e+05
    8.8984309696e-04    1.0120000000e+05
    8.9994078735e-04    1.0120000000e+05
    9.0994156199e-04    1.0120000000e+05
    9.1984652681e-04    1.0120000000e+05
    9.2984078219e-04    1.0120000000e+05
    9.3992560869e-04    1.0120000000e+05
    9.4990583602e-04    1.0120000000e+05
    9.5997605240e-04    1.0120000000e+05
    9.6993707120e-04    1.0120000000e+05
    9.7998732235e-04    1.0120000000e+05
    9.8992430139e-04    1.0120000000e+05
    9.9994940683e-04    1.0120000000e+05
    1.0098567000e-03    1.0120000000e+05
    1.0198513046e-03    1.0120000000e+05
    1.0299348505e-03    1.0120000000e+05
    1.0398956947e-03    1.0120000000e+05
    1.0499440832e-03    1.0120000000e+05
    1.0598651133e-03    1.0120000000e+05
    1.0698732221e-03    1.0120000000e+05
    1.0799695738e-03    1.0120000000e+05
    1.0899332119e-03    1.0120000000e+05
    1.0999838123e-03    1.0120000000e+05
    1.1098969262e-03    1.0120000000e+05
    1.1198968859e-03    1.0120000000e+05
    1.1299836915e-03    1.0120000000e+05
    1.1399283540e-03    1.0120000000e+05
    1.1499582324e-03    1.0120000000e+05
    1.1598407291e-03    1.0120000000e+05
    1.1698097223e-03    1.0120000000e+05
    1.1798660271e-03    1.0120000000e+05
    1.1897679651e-03    1.0120000000e+05
    1.1999992421e-03    1.0120000000e+05
    1.2098271400e-03    1.0120000000e+05
    1.2199897319e-03    1.0120000000e+05
    1.2299910886e-03    1.0120000000e+05
    1.2398269027e-03    1.0120000000e+05
    1.2497464195e-03    1.0120000000e+05
    1.2597528985e-03    1.0120000000e+05
    1.2698469218e-03    1.0120000000e+05
    1.2797678355e-03    1.0120000000e+05
    1.2897747802e-03    1.0120000000e+05
    1.2998695020e-03    1.0120000000e+05
    1.3097850606e-03    1.0120000000e+05
    1.3197864173e-03    1.0120000000e+05
    1.3298756676e-03    1.0120000000e+05
    1.3397784205e-03    1.0120000000e+05
    1.3497674372e-03    1.0120000000e+05
    1.3598442310e-03    1.0120000000e+05
    1.3697271934e-03    1.0120000000e+05
    1.3799826847e-03    1.0120000000e+05
    1.3897538884e-03    1.0120000000e+05
    1.3999009971e-03    1.0120000000e+05
    1.4098458923e-03    1.0120000000e+05
    1.4198785648e-03    1.0120000000e+05
    1.4297018060e-03    1.0120000000e+05
    1.4399131760e-03    1.0120000000e+05
    1.4499130193e-03    1.0120000000e+05
    1.4596958645e-03    1.0120000000e+05
    1.4698723098e-03    1.0120000000e+05
    1.4798250049e-03    1.0120000000e+05
    1.4898733934e-03    1.0120000000e+05
    1.4996948885e-03    1.0120000000e+05
    1.5099250013e-03    1.0120000000e+05
    1.5199261252e-03    1.0120000000e+05
    1.5296912752e-03    1.0120000000e+05
    1.5398736577e-03    1.0120000000e+05
    1.5498180874e-03    1.0120000000e+05
    1.5598532045e-03    1.0120000000e+05
    1.5699812211e-03    1.0120000000e+05
    1.5798620880e-03    1.0120000000e+05
    1.5898331767e-03    1.0120000000e+05
    1.5998968156e-03    1.0120000000e+05
    1.6097031767e-03    1.0120000000e+05
    1.6199549427e-03    1.0120000000e+05
    1.6299468698e-03    1.0120000000e+05
    1.6396711580e-03    1.0120000000e+05
    1.6498499317e-03    1.0120000000e+05
    1.6597509384e-03    1.0120000000e+05
    1.6697508981e-03    1.0120000000e+05
    1.6798489960e-03    1.0120000000e+05
    1.6896659508e-03    1.0120000000e+05
    1.6999590443e-03    1.0120000000e+05
    1.7099680845e-03    1.0120000000e+05
    1.7196839908e-03    1.0120000000e+05
    1.7298867460e-03    1.0120000000e+05
    1.7397935735e-03    1.0120000000e+05
    1.7497974914e-03    1.0120000000e+05
    1.7599008279e-03    1.0120000000e+05
    1.7696956638e-03    1.0120000000e+05
    1.7795865424e-03    1.0120000000e+05
    1.7899906961e-03    1.0120000000e+05
    1.7996628303e-03    1.0120000000e+05
    1.8098574365e-03    1.0120000000e+05
    1.8197268946e-03    1.0120000000e+05
    1.8296923954e-03    1.0120000000e+05
    1.8397226231e-03    1.0120000000e+05
    1.8498032587e-03    1.0120000000e+05
    1.8599281320e-03    1.0120000000e+05
    1.8696436891e-03    1.0120000000e+05
    1.8798378296e-03    1.0120000000e+05
    1.8895912217e-03    1.0120000000e+05
    1.8998011947e-03    1.0120000000e+05
    1.9095916068e-03    1.0120000000e+05
    1.9198072841e-03    1.0120000000e+05
    1.9295917591e-03    1.0120000000e+05
    1.9398058066e-03    1.0120000000e+05
    1.9495590823e-03    1.0120000000e+05
    1.9597683568e-03    1.0120000000e+05
    1.9699910190e-03    1.0120000000e+05
    1.9797254354e-03    1.0120000000e+05
    1.9899359904e-03    1.0120000000e+05
    1.9996790215e-03    1.0120000000e+05
    2.0098702516e-03    1.0120000000e+05
    2.0195813850e-03    1.0120000000e+05
    2.0298091695e-03    1.0120000000e+05
    2.0395694301e-03    1.0120000000e+05
    2.0497362129e-03    1.0120000000e+05
    2.0599081181e-03    1.0120000000e+05
    2.0697161090e-03    1.0120000000e+05
    2.0799592603e-03    1.0120000000e+05
    2.0897872746e-03    1.0120000000e+05
    2.0996471867e-03    1.0120000000e+05
    2.1099427249e-03    1.0120000000e+05
    2.1198478062e-03    1.0120000000e+05
    2.1297533531e-03    1.0120000000e+05
    2.1396724042e-03    1.0120000000e+05
    2.1496114787e-03    1.0120000000e+05
    2.1599873435e-03    1.0120000000e+05
    2.1699271165e-03    1.0120000000e+05
    2.1798631642e-03    1.0120000000e+05
    2.1897866391e-03    1.0120000000e+05
    2.1996756550e-03    1.0120000000e+05
    2.2099881899e-03    1.0120000000e+05
    2.2198108491e-03    1.0120000000e+05
    2.2295895033e-03    1.0120000000e+05
    2.2397530265e-03    1.0120000000e+05
    2.2498352919e-03    1.0120000000e+05
    2.2598330397e-03    1.0120000000e+05
    2.2697474342e-03    1.0120000000e+05
    2.2795801051e-03    1.0120000000e+05
    2.2897548042e-03    1.0120000000e+05
    2.2998433560e-03    1.0120000000e+05
    2.3098471574e-03    1.0120000000e+05
    2.3197683040e-03    1.0120000000e+05
    2.3296074942e-03    1.0120000000e+05
    2.3397707846e-03    1.0120000000e+05
    2.3498476949e-03    1.0120000000e+05
    2.3598393891e-03    1.0120000000e+05
    2.3697474971e-03    1.0120000000e+05
    2.3799648043e-03    1.0120000000e+05
    2.3897057399e-03    1.0120000000e+05
    2.3997514509e-03    1.0120000000e+05
    2.4097114801e-03    1.0120000000e+05
    2.4199651089e-03    1.0120000000e+05
    2.4297537748e-03    1.0120000000e+05
    2.4398313835e-03    1.0120000000e+05
    2.4498209823e-03    1.0120000000e+05
    2.4597237352e-03    1.0120000000e+05
    2.4699028581e-03    1.0120000000e+05
    2.4799904786e-03    1.0120000000e+05
    2.4899879936e-03    1.0120000000e+05
    2.4998961017e-03    1.0120000000e+05
    2.5097155012e-03    1.0120000000e+05
    2.5197928771e-03    1.0120000000e+05
    2.5297768880e-03    1.0120000000e+05
    2.5396689307e-03    1.0120000000e+05
    2.5498056784e-03    1.0120000000e+05
    2.5598455686e-03    1.0120000000e+05
    2.5697888341e-03    1.0120000000e+05
    2.5799630675e-03    1.0120000000e+05
    2.5897119194e-03    1.0120000000e+05
    2.5996870827e-03    1.0120000000e+05
    2.6098780800e-03    1.0120000000e+05
    2.6199636050e-03    1.0120000000e+05
    2.6299431920e-03    1.0120000000e+05
    2.6398177724e-03    1.0120000000e+05
    2.6498911902e-03    1.0120000000e+05
    2.6598530822e-03    1.0120000000e+05
    2.6697048452e-03    1.0120000000e+05
    2.6797391474e-03    1.0120000000e+05
    2.6899466757e-03    1.0120000000e+05
    2.6997439563e-03    1.0120000000e+05
    2.7099903673e-03    1.0120000000e+05
    2.7198265307e-03    1.0120000000e+05
    2.7298142668e-03    1.0120000000e+05
    2.7399426326e-03    1.0120000000e+05
    2.7499317657e-03    1.0120000000e+05
    2.7597812004e-03    1.0120000000e+05
    2.7697507758e-03    1.0120000000e+05
    2.7798276860e-03    1.0120000000e+05
    2.7899986599e-03    1.0120000000e+05
    2.7997542638e-03    1.0120000000e+05
    2.8098367620e-03    1.0120000000e+05
    2.8199783992e-03    1.0120000000e+05
    2.8299288824e-03    1.0120000000e+05
    2.8399149887e-03    1.0120000000e+05
    2.8499187902e-03    1.0120000000e+05
    2.8599214274e-03    1.0120000000e+05
    2.8699017130e-03    1.0120000000e+05
    2.8798365965e-03    1.0120000000e+05
    2.8899034951e-03    1.0120000000e+05
    2.8998581693e-03    1.0120000000e+05
    2.9098570812e-03    1.0120000000e+05
    2.9198385309e-03    1.0120000000e+05
    2.9299033340e-03    1.0120000000e+05
    2.9399350751e-03    1.0120000000e+05
    2.9499367811e-03    1.0120000000e+05
    2.9599394184e-03    1.0120000000e+05
    2.9699255247e-03    1.0120000000e+05
    2.9799824115e-03    1.0120000000e+05
    2.9899426736e-03    1.0120000000e+05
    2.9998994432e-03    1.0120000000e+05
    3.0099214055e-03    1.0120000000e+05
    3.0199617613e-03    1.0120000000e+05
    3.0298880301e-03    1.0120000000e+05
    3.0398759991e-03    1.0120000000e+05
    3.0499265995e-03    1.0120000000e+05
    3.0599511229e-03    1.0120000000e+05
    3.0698452611e-03    1.0120000000e+05
    3.0799587257e-03    1.0120000000e+05
    3.0898181722e-03    1.0120000000e+05
    3.0999351293e-03    1.0120000000e+05
    3.1099950429e-03    1.0120000000e+05
    3.1198109500e-03    1.0120000000e+05
    3.1298748218e-03    1.0120000000e+05
    3.1398944557e-03    1.0120000000e+05
    3.1499864999e-03    1.0120000000e+05
    3.1599598005e-03    1.0120000000e+05
    3.1698388048e-03    1.0120000000e+05
    3.1799911521e-03    1.0120000000e+05
    3.1898103189e-03    1.0120000000e+05
    3.1999088824e-03    1.0120000000e+05
    3.2098793890e-03    1.0120000000e+05
    3.2198899426e-03    1.0120000000e+05
    3.2297847793e-03    1.0120000000e+05
    3.2399308402e-03    1.0120000000e+05
    3.2499346416e-03    1.0120000000e+05
    3.2599898987e-03    1.0120000000e+05
    3.2698775176e-03    1.0120000000e+05
    3.2798193861e-03    1.0120000000e+05
    3.2898141071e-03    1.0120000000e+05
    3.2998458482e-03    1.0120000000e+05
    3.3099502325e-03    1.0120000000e+05
    3.3198418096e-03    1.0120000000e+05
    3.3298160415e-03    1.0120000000e+05
    3.3398084342e-03    1.0120000000e+05
    3.3498457633e-03    1.0120000000e+05
    3.3599417657e-03    1.0120000000e+05
    3.3698175102e-03    1.0120000000e+05
    3.3799977973e-03    1.0120000000e+05
    3.3899601549e-03    1.0120000000e+05
    3.3999611624e-03    1.0120000000e+05
    3.4097835887e-03    1.0120000000e+05
    3.4198476933e-03    1.0120000000e+05
    3.4299723338e-03    1.0120000000e+05
    3.4398727585e-03    1.0120000000e+05
    3.4498190507e-03    1.0120000000e+05
    3.4598149359e-03    1.0120000000e+05
    3.4697914962e-03    1.0120000000e+05
    3.4798490815e-03    1.0120000000e+05
    3.4899204038e-03    1.0120000000e+05
    3.4999931231e-03    1.0120000000e+05
    3.5099033266e-03    1.0120000000e+05
    3.5197914112e-03    1.0120000000e+05
    3.5299651790e-03    1.0120000000e+05
    3.5399603657e-03    1.0120000000e+05
    3.5499101505e-03    1.0120000000e+05
    3.5599367693e-03    1.0120000000e+05
    3.5699787550e-03    1.0120000000e+05
    3.5797541495e-03    1.0120000000e+05
    3.5898615606e-03    1.0120000000e+05
    3.5999519750e-03    1.0120000000e+05
    3.6098100245e-03    1.0120000000e+05
    3.6199679598e-03    1.0120000000e+05
    3.6298679188e-03    1.0120000000e+05
    3.6397967488e-03    1.0120000000e+05
    3.6497581750e-03    1.0120000000e+05
    3.6599708255e-03    1.0120000000e+05
    3.6699560005e-03    1.0120000000e+05
    3.6799558438e-03    1.0120000000e+05
    3.6899647675e-03    1.0120000000e+05
    3.6999906879e-03    1.0120000000e+05
    3.7097728346e-03    1.0120000000e+05
    3.7198113278e-03    1.0120000000e+05
    3.7298568059e-03    1.0120000000e+05
    3.7399060093e-03    1.0120000000e+05
    3.7499577738e-03    1.0120000000e+05
    3.7597601768e-03    1.0120000000e+05
    3.7698133383e-03    1.0120000000e+05
    3.7798653357e-03    1.0120000000e+05
    3.7899177987e-03    1.0120000000e+05
    3.7999693304e-03    1.0120000000e+05
    3.8097694051e-03    1.0120000000e+05
    3.8198193070e-03    1.0120000000e+05
    3.8298710715e-03    1.0120000000e+05
    3.8399233017e-03    1.0120000000e+05
    3.8499790244e-03    1.0120000000e+05
    3.8597856183e-03    1.0120000000e+05
    3.8698504213e-03    1.0120000000e+05
    3.8799163885e-03    1.0120000000e+05
    3.8899867795e-03    1.0120000000e+05
    3.8998189848e-03    1.0120000000e+05
    3.9099082351e-03    1.0120000000e+05
    3.9200000465e-03    1.0120000000e+05
    3.9298501797e-03    1.0120000000e+05
    3.9399685338e-03    1.0120000000e+05
    3.9498382248e-03    1.0120000000e+05
    3.9599644952e-03    1.0120000000e+05
    3.9698523469e-03    1.0120000000e+05
    3.9797541685e-03    1.0120000000e+05
    3.9899121039e-03    1.0120000000e+05
    3.9998223074e-03    1.0120000000e+05
    4.0097497404e-03    1.0120000000e+05
    4.0199412033e-03    1.0120000000e+05
    4.0298826061e-03    1.0120000000e+05
    4.0398337878e-03    1.0120000000e+05
    4.0497980081e-03    1.0120000000e+05
    4.0597710758e-03    1.0120000000e+05
    4.0697478689e-03    1.0120000000e+05
    4.0799961425e-03    1.0120000000e+05
    4.0899957530e-03    1.0120000000e+05
    4.0997467004e-03    1.0120000000e+05
    4.1097602807e-03    1.0120000000e+05
    4.1197920218e-03    1.0120000000e+05
    4.1298228316e-03    1.0120000000e+05
    4.1398657486e-03    1.0120000000e+05
    4.1499165818e-03    1.0120000000e+05
    4.1599851102e-03    1.0120000000e+05
    4.1697858833e-03    1.0120000000e+05
    4.1798572056e-03    1.0120000000e+05
    4.1899443604e-03    1.0120000000e+05
    4.1997865774e-03    1.0120000000e+05
    4.2098821141e-03    1.0120000000e+05
    4.2199906893e-03    1.0120000000e+05
    4.2298547924e-03    1.0120000000e+05
    4.2399847880e-03    1.0120000000e+05
    4.2498502880e-03    1.0120000000e+05
    4.2599877343e-03    1.0120000000e+05
    4.2698779143e-03    1.0120000000e+05
    4.2797764763e-03    1.0120000000e+05
    4.2899339460e-03    1.0120000000e+05
    4.2998413555e-03    1.0120000000e+05
    4.3097604066e-03    1.0120000000e+05
    4.3199430220e-03    1.0120000000e+05
    4.3298760429e-03    1.0120000000e+05
    4.3398137204e-03    1.0120000000e+05
    4.3497630395e-03    1.0120000000e+05
    4.3599652126e-03    1.0120000000e+05
    4.3699336238e-03    1.0120000000e+05
    4.3799034320e-03    1.0120000000e+05
    4.3898830190e-03    1.0120000000e+05
    4.3998463079e-03    1.0120000000e+05
    4.4098421931e-03    1.0120000000e+05
    4.4198296964e-03    1.0120000000e+05
    4.4298362918e-03    1.0120000000e+05
    4.4398317114e-03    1.0120000000e+05
    4.4498518109e-03    1.0120000000e+05
    4.4598644599e-03    1.0120000000e+05
    4.4698948041e-03    1.0120000000e+05
    4.4799158350e-03    1.0120000000e+05
    4.4899592176e-03    1.0120000000e+05
    4.4999993406e-03    1.0120000000e+05
    4.5097875409e-03    1.0120000000e+05
    4.5198285952e-03    1.0120000000e+05
    4.5298896730e-03    1.0120000000e+05
    4.5399554074e-03    1.0120000000e+05
    4.5497664250e-03    1.0120000000e+05
    4.5598386787e-03    1.0120000000e+05
    4.5699081384e-03    1.0120000000e+05
    4.5799878426e-03    1.0120000000e+05
    4.5898207463e-03    1.0120000000e+05
    4.5999316499e-03    1.0120000000e+05
    4.6097757295e-03    1.0120000000e+05
    4.6198768541e-03    1.0120000000e+05
    4.6299681999e-03    1.0120000000e+05
    4.6398164704e-03    1.0120000000e+05
    4.6499446034e-03    1.0120000000e+05
    4.6598096378e-03    1.0120000000e+05
    4.6699387021e-03    1.0120000000e+05
    4.6797981486e-03    1.0120000000e+05
    4.6899220906e-03    1.0120000000e+05
    4.6997792087e-03    1.0120000000e+05
    4.7099040821e-03    1.0120000000e+05
    4.7197686508e-03    1.0120000000e+05
    4.7299065627e-03    1.0120000000e+05
    4.7397781163e-03    1.0120000000e+05
    4.7499146312e-03    1.0120000000e+05
    4.7597829252e-03    1.0120000000e+05
    4.7699166462e-03    1.0120000000e+05
    4.7797835432e-03    1.0120000000e+05
    4.7899167985e-03    1.0120000000e+05
    4.7997841612e-03    1.0120000000e+05
    4.8099188134e-03    1.0120000000e+05
    4.8197857104e-03    1.0120000000e+05
    4.8299194314e-03    1.0120000000e+05
    4.8397858627e-03    1.0120000000e+05
    4.8499186523e-03    1.0120000000e+05
    4.8597846180e-03    1.0120000000e+05
    4.8699164763e-03    1.0120000000e+05
    4.8797819763e-03    1.0120000000e+05
    4.8899138346e-03    1.0120000000e+05
    4.8997784033e-03    1.0120000000e+05
    4.9099093303e-03    1.0120000000e+05
    4.9197725020e-03    1.0120000000e+05
    4.9299029633e-03    1.0120000000e+05
    4.9397670664e-03    1.0120000000e+05
    4.9498965964e-03    1.0120000000e+05
    4.9597602338e-03    1.0120000000e+05
    4.9698934890e-03    1.0120000000e+05
    4.9797655083e-03    1.0120000000e+05
    4.9899066798e-03    1.0120000000e+05
    4.9997828901e-03    1.0120000000e+05
    5.0099254586e-03    1.0120000000e+05
    5.0197998062e-03    1.0120000000e+05
    5.0299391150e-03    1.0120000000e+05
    5.0398111343e-03    1.0120000000e+05
    5.0499490462e-03    1.0120000000e+05
    5.0598210655e-03    1.0120000000e+05
    5.0699636340e-03    1.0120000000e+05
    5.0798421726e-03    1.0120000000e+05
    5.0899861380e-03    1.0120000000e+05
    5.0998623483e-03    1.0120000000e+05
    5.1097380929e-03    1.0120000000e+05
    5.1198801957e-03    1.0120000000e+05
    5.1297545433e-03    1.0120000000e+05
    5.1398975775e-03    1.0120000000e+05
    5.1497775130e-03    1.0120000000e+05
    5.1599233411e-03    1.0120000000e+05
    5.1698004827e-03    1.0120000000e+05
    5.1799439825e-03    1.0120000000e+05
    5.1898201928e-03    1.0120000000e+05
    5.1999683492e-03    1.0120000000e+05
    5.2098510787e-03    1.0120000000e+05
    5.2199992351e-03    1.0120000000e+05
    5.2298796363e-03    1.0120000000e+05
    5.2397591062e-03    1.0120000000e+05
    5.2499105223e-03    1.0120000000e+05
    5.2597955801e-03    1.0120000000e+05
    5.2699469961e-03    1.0120000000e+05
    5.2798301913e-03    1.0120000000e+05
    5.2899797447e-03    1.0120000000e+05
    5.2998671308e-03    1.0120000000e+05
    5.3097545169e-03    1.0120000000e+05
    5.3199082613e-03    1.0120000000e+05
    5.3297933191e-03    1.0120000000e+05
    5.3399489261e-03    1.0120000000e+05
    5.3498377092e-03    1.0120000000e+05
    5.3599933162e-03    1.0120000000e+05
    5.3698807023e-03    1.0120000000e+05
    5.3797690198e-03    1.0120000000e+05
    5.3899269551e-03    1.0120000000e+05
    5.3998162039e-03    1.0120000000e+05
    5.4099722765e-03    1.0120000000e+05
    5.4198624566e-03    1.0120000000e+05
    5.4297531024e-03    1.0120000000e+05
    5.4399101064e-03    1.0120000000e+05
    5.4497993551e-03    1.0120000000e+05
    5.4599572904e-03    1.0120000000e+05
    5.4698474705e-03    1.0120000000e+05
    5.4797371849e-03    1.0120000000e+05
    5.4898941889e-03    1.0120000000e+05
    5.4997843690e-03    1.0120000000e+05
    5.5099409074e-03    1.0120000000e+05
    5.5198301561e-03    1.0120000000e+05
    5.5299866945e-03    1.0120000000e+05
    5.5398754776e-03    1.0120000000e+05
    5.5497637950e-03    1.0120000000e+05
    5.5599189363e-03    1.0120000000e+05
    5.5698077194e-03    1.0120000000e+05
    5.5799647234e-03    1.0120000000e+05
    5.5898539722e-03    1.0120000000e+05
    5.5997427553e-03    1.0120000000e+05
    5.6098974310e-03    1.0123310156e+05
    5.6197848171e-03    2.1375025000e+05
    5.6299390271e-03    2.3032568750e+05
    5.6398259476e-03    2.2930062500e+05
    5.6499810889e-03    2.2829392188e+05
    5.6598694064e-03    2.2732226562e+05
    5.6697572581e-03    2.2635779688e+05
    5.6799123995e-03    2.2537554688e+05
    5.6897997856e-03    2.2442745312e+05
    5.6999539956e-03    2.2346167188e+05
    5.7098404504e-03    2.2252904688e+05
    5.7199941948e-03    2.2157926562e+05
    5.7298801839e-03    2.2066212500e+05
    5.7397657074e-03    2.1975237500e+05
    5.7499175891e-03    2.1882573438e+05
    5.7598021813e-03    2.1793085938e+05
    5.7699540630e-03    2.1701920312e+05
    5.7798386551e-03    2.1613879688e+05
    5.7899910025e-03    2.1524189062e+05
    5.7998765260e-03    2.1437557812e+05
    5.8097620495e-03    2.1351632812e+05
    5.8199139312e-03    2.1264106250e+05
    5.8297980577e-03    2.1179554688e+05
    5.8399485424e-03    2.1093379688e+05
    5.8498322032e-03    2.1010148438e+05
    5.8599826880e-03    2.0925407812e+05
    5.8698663488e-03    2.0843582812e+05
    5.8797500096e-03    2.0762342188e+05
    5.8899004944e-03    2.0679492188e+05
    5.8997832239e-03    2.0599498438e+05
    5.9099323116e-03    2.0518098438e+05
    5.9198145755e-03    2.0439464062e+05
    5.9299636632e-03    2.0359214062e+05
    5.9398454614e-03    2.0281635938e+05
    5.9499936178e-03    2.0202704688e+05
    5.9598744847e-03    2.0126573438e+05
    5.9697553515e-03    2.0050979688e+05
    5.9799025767e-03    1.9973787500e+05
    5.9897825122e-03    1.9899157812e+05
    5.9999297373e-03    1.9823217188e+05
    6.0098101385e-03    1.9749956250e+05
    6.0199573636e-03    1.9675275000e+05
    6.0298386961e-03    1.9603010938e+05
    6.0399891809e-03    1.9529295312e+05
    6.0498747043e-03    1.9458085938e+05
    6.0597611591e-03    1.9387454688e+05
    6.0699195601e-03    1.9315435938e+05
    6.0798181221e-03    1.9245767188e+05
    6.0899918899e-03    1.9174700000e+05
    6.0999030247e-03    1.9106001562e+05
    6.1098211445e-03    1.9037779688e+05
    6.1197513714e-03    1.8969981250e+05
    6.1299623922e-03    1.8900787500e+05
    6.1399121769e-03    1.8833857812e+05
    6.1498708092e-03    1.8767370312e+05
    6.1598396860e-03    1.8701306250e+05
    6.1698229983e-03    1.8635642188e+05
    6.1798174866e-03    1.8570389062e+05
    6.1898180284e-03    1.8505579688e+05
    6.1998288147e-03    1.8441195312e+05
    6.2098512426e-03    1.8377206250e+05
    6.2198834494e-03    1.8313625000e+05
    6.2299249694e-03    1.8250454688e+05
    6.2399781309e-03    1.8187676562e+05
    6.2497672625e-03    1.8126982812e+05
    6.2598390505e-03    1.8064992188e+05
    6.2699201517e-03    1.8003407812e+05
    6.2797404826e-03    1.7943843750e+05
    6.2898420729e-03    1.7883007812e+05
    6.2999473885e-03    1.7822587500e+05
    6.3097910024e-03    1.7764164062e+05
    6.3199177384e-03    1.7704492188e+05
    6.3297781162e-03    1.7646814062e+05
    6.3399202190e-03    1.7587918750e+05
    6.3497954980e-03    1.7530975000e+05
    6.3599548303e-03    1.7472801562e+05
    6.3698492013e-03    1.7416562500e+05
    6.3797486946e-03    1.7360725000e+05
    6.3899341039e-03    1.7303679688e+05
    6.3998494297e-03    1.7248495312e+05
    6.4097694121e-03    1.7193635938e+05
    6.4199790359e-03    1.7137604688e+05
    6.4299171790e-03    1.7083485938e+05
    6.4398609102e-03    1.7029718750e+05
    6.4498116262e-03    1.6976254688e+05
    6.4597674645e-03    1.6923134375e+05
    6.4697344787e-03    1.6870351562e+05
    6.4799860120e-03    1.6816462500e+05
    6.4899614081e-03    1.6764371875e+05
    6.4999489114e-03    1.6712540625e+05
    6.5099406056e-03    1.6661050000e+05
    6.5199374221e-03    1.6609918750e+05
    6.5299458802e-03    1.6559100000e+05
    6.5399534069e-03    1.6508612500e+05
    6.5499697812e-03    1.6458415625e+05
    6.5599936061e-03    1.6408528125e+05
    6.5697412938e-03    1.6360357812e+05
    6.5797814168e-03    1.6311078125e+05
    6.5898220055e-03    1.6262121875e+05
    6.5998625942e-03    1.6213498438e+05
    6.6099185497e-03    1.6165148438e+05
    6.6199754365e-03    1.6117117188e+05
    6.6297603771e-03    1.6070693750e+05
    6.6398326308e-03    1.6023225000e+05
    6.6499002278e-03    1.5976110938e+05
    6.6599831916e-03    1.5929240625e+05
    6.6697900183e-03    1.5883946875e+05
    6.6798781045e-03    1.5837660938e+05
    6.6899810918e-03    1.5791628125e+05
    6.6997976974e-03    1.5747198438e+05
    6.7098997533e-03    1.5701779688e+05
    6.7197373137e-03    1.5657843750e+05
    6.7298500799e-03    1.5612990625e+05
    6.7399768159e-03    1.5568373438e+05
    6.7498241551e-03    1.5525254688e+05
    6.7599453032e-03    1.5481203125e+05
    6.7698080093e-03    1.5438575000e+05
    6.7799519747e-03    1.5395042188e+05
    6.7898132838e-03    1.5353021875e+05
    6.7999730818e-03    1.5310004688e+05
    6.8098399788e-03    1.5268475000e+05
    6.8197203800e-03    1.5227143750e+05
    6.8298950791e-03    1.5184854688e+05
    6.8397754803e-03    1.5144073438e+05
    6.8499529734e-03    1.5102356250e+05
    6.8598543294e-03    1.5062029688e+05
    6.8697510287e-03    1.5021967188e+05
    6.8799499422e-03    1.4980950000e+05
    6.8898606114e-03    1.4941364062e+05
    6.8997759372e-03    1.4902017188e+05
    6.9099892862e-03    1.4861720312e+05
    6.9199088030e-03    1.4822814062e+05
    6.9298371673e-03    1.4784143750e+05
    6.9397748448e-03    1.4745718750e+05
    6.9499937817e-03    1.4706462500e+05
    6.9599444978e-03    1.4668448438e+05
    6.9698966108e-03    1.4630639062e+05
    6.9798468612e-03    1.4593085938e+05
    6.9898082875e-03    1.4555751562e+05
    6.9997655228e-03    1.4518676562e+05
    7.0097288117e-03    1.4481820312e+05
    7.0199910551e-03    1.4444087500e+05
    7.0299678482e-03    1.4407615625e+05
    7.0399520919e-03    1.4371329688e+05
    7.0499433205e-03    1.4335254688e+05
    7.0599303581e-03    1.4299448438e+05
    7.0699243806e-03    1.4263860938e+05
    7.0799216628e-03    1.4228473438e+05
    7.0899245329e-03    1.4193262500e+05
    7.0999362506e-03    1.4158215625e+05
    7.1099502966e-03    1.4123381250e+05
    7.1199680679e-03    1.4088768750e+05
    7.1299946867e-03    1.4054364062e+05
    7.1397316642e-03    1.4021157812e+05
    7.1497610770e-03    1.3987150000e+05
    7.1597984061e-03    1.3953301562e+05
    7.1698399261e-03    1.3919639062e+05
    7.1798893623e-03    1.3886168750e+05
    7.1899443865e-03    1.3852909375e+05
    7.1999994107e-03    1.3819868750e+05
    7.2097699158e-03    1.3787948438e+05
    7.2198314592e-03    1.3755242188e+05
    7.2298995219e-03    1.3722685938e+05
    7.2399778292e-03    1.3690310938e+05
    7.2497734800e-03    1.3659084375e+05
    7.2598583065e-03    1.3627151562e+05
    7.2699468583e-03    1.3595370312e+05
    7.2797485627e-03    1.3564631250e+05
    7.2898427024e-03    1.3533154688e+05
    7.2999461554e-03    1.3501876562e+05
    7.3097706772e-03    1.3471676562e+05
    7.3198899627e-03    1.3440754688e+05
    7.3297219351e-03    1.3410868750e+05
    7.3398430832e-03    1.3380265625e+05
    7.3499679565e-03    1.3349825000e+05
    7.3598111048e-03    1.3320418750e+05
    7.3699508794e-03    1.3290332812e+05
    7.3798066005e-03    1.3261267188e+05
    7.3899598792e-03    1.3231479688e+05
    7.3998249136e-03    1.3202693750e+05
    7.4099805206e-03    1.3173245312e+05
    7.4198516086e-03    1.3144810938e+05
    7.4297301471e-03    1.3116523438e+05
    7.4399053119e-03    1.3087537500e+05
    7.4497959577e-03    1.3059522656e+05
    7.4599832296e-03    1.3030850000e+05
    7.4698831886e-03    1.3003150781e+05
    7.4797868729e-03    1.2975599219e+05
    7.4899839237e-03    1.2947391406e+05
    7.4998959899e-03    1.2920128906e+05
    7.5098173693e-03    1.2893003125e+05
    7.5197434053e-03    1.2866018750e+05
    7.5299669988e-03    1.2838386719e+05
    7.5399042107e-03    1.2811697656e+05
    7.5498437509e-03    1.2785164844e+05
    7.5597860850e-03    1.2758775000e+05
    7.5697330758e-03    1.2732499219e+05
    7.5799846090e-03    1.2705563281e+05
    7.5899530202e-03    1.2679536719e+05
    7.5999232940e-03    1.2653678125e+05
    7.6098958962e-03    1.2627966406e+05
    7.6198675670e-03    1.2602394531e+05
    7.6298434287e-03    1.2576946875e+05
    7.6398258097e-03    1.2551636719e+05
    7.6498151757e-03    1.2526453906e+05
    7.6598175801e-03    1.2501366406e+05
    7.6698316261e-03    1.2476389844e+05
    7.6798535883e-03    1.2451544531e+05
    7.6898816042e-03    1.2426836719e+05
    7.6999100856e-03    1.2402265625e+05
    7.7099362388e-03    1.2377833594e+05
    7.7199623920e-03    1.2353535156e+05
    7.7299829572e-03    1.2329383594e+05
    7.7397138812e-03    1.2306063281e+05
    7.7497418970e-03    1.2282171094e+05
    7.7597713098e-03    1.2258413281e+05
    7.7698063105e-03    1.2234769531e+05
    7.7798413113e-03    1.2211255469e+05
    7.7898758464e-03    1.2187878906e+05
    7.7999192290e-03    1.2164616406e+05
    7.8099728562e-03    1.2141456250e+05
    7.8197373077e-03    1.2119085156e+05
    7.8298039734e-03    1.2096152344e+05
    7.8398659825e-03    1.2073360156e+05
    7.8499242663e-03    1.2050706250e+05
    7.8599881381e-03    1.2028159375e+05
    7.8697539866e-03    1.2006388281e+05
    7.8798262402e-03    1.1984053906e+05
    7.8899068758e-03    1.1961818750e+05
    7.8999903053e-03    1.1939703906e+05
    7.9097822309e-03    1.1918362500e+05
    7.9198740423e-03    1.1896502344e+05
    7.9299677163e-03    1.1874771875e+05
    7.9397680238e-03    1.1853786719e+05
    7.9498616979e-03    1.1832289844e+05
    7.9599535093e-03    1.1810917969e+05
    7.9697556794e-03    1.1790275781e+05
    7.9798530787e-03    1.1769103906e+05
    7.9899607226e-03    1.1747977344e+05
    7.9997768626e-03    1.1727525000e+05
    8.0098947510e-03    1.1706544531e+05
    8.0197127536e-03    1.1686314844e+05
    8.0298287794e-03    1.1665637500e+05
    8.0399354920e-03    1.1645167969e+05
    8.0497516319e-03    1.1625478125e+05
    8.0598779023e-03    1.1605328125e+05
    8.0697061494e-03    1.1585886719e+05
    8.0798426643e-03    1.1565905469e+05
    8.0899754539e-03    1.1545946094e+05
    8.0998130143e-03    1.1526535156e+05
    8.1099448726e-03    1.1506508594e+05
    8.1197824329e-03    1.1487066406e+05
    8.1299263984e-03    1.1467097656e+05
    8.1397797912e-03    1.1447840625e+05
    8.1499349326e-03    1.1428222656e+05
    8.1597911194e-03    1.1409471094e+05
    8.1699481234e-03    1.1390478906e+05
    8.1798005849e-03    1.1372360156e+05
    8.1899594516e-03    1.1353922656e+05
    8.1998212263e-03    1.1336147656e+05
    8.2099838182e-03    1.1317808594e+05
    8.2198549062e-03    1.1299844531e+05
    8.2297278568e-03    1.1281660156e+05
    8.2399044186e-03    1.1262709375e+05
    8.2497820258e-03    1.1244192969e+05
    8.2599585876e-03    1.1225117969e+05
    8.2698334008e-03    1.1206725781e+05
    8.2797072828e-03    1.1188544531e+05
    8.2898782566e-03    1.1170086719e+05
    8.2997502759e-03    1.1152466406e+05
    8.3099193871e-03    1.1134637500e+05
    8.3197904751e-03    1.1117665625e+05
    8.3299586549e-03    1.1100513281e+05
    8.3398278803e-03    1.1084133594e+05
    8.3499960601e-03    1.1067421875e+05
    8.3598643541e-03    1.1051246094e+05
    8.3697335795e-03    1.1035014844e+05
    8.3799017593e-03    1.1018155469e+05
    8.3897737786e-03    1.1001622656e+05
    8.3999447525e-03    1.0984433594e+05
    8.4098139778e-03    1.0967658594e+05
    8.4199849516e-03    1.0950341406e+05
    8.4298569709e-03    1.0933577344e+05
    8.4397308528e-03    1.0916916406e+05
    8.4499092773e-03    1.0899882031e+05
    8.4597924724e-03    1.0883463281e+05
    8.4699746221e-03    1.0866666406e+05
    8.4798550233e-03    1.0850506250e+05
    8.4897372872e-03    1.0834497656e+05
    8.4999278188e-03    1.0818150781e+05
    8.5098380223e-03    1.0802407031e+05
    8.5197528824e-03    1.0786817969e+05
    8.5299713537e-03    1.0770930469e+05
    8.5398862138e-03    1.0755669531e+05
    8.5497982800e-03    1.0740544531e+05
    8.5597224534e-03    1.0725507031e+05
    8.5699660704e-03    1.0710060156e+05
    8.5799181834e-03    1.0695087500e+05
    8.5898702964e-03    1.0680122656e+05
    8.5998168215e-03    1.0665164844e+05
    8.6097633466e-03    1.0650213281e+05
    8.6197201163e-03    1.0635271094e+05
    8.6297011003e-03    1.0620349219e+05
    8.6399912834e-03    1.0605039844e+05
    8.6499955505e-03    1.0590237500e+05
    8.6599960923e-03    1.0575533594e+05
    8.6696976796e-03    1.0561374219e+05
    8.6797215044e-03    1.0546857031e+05
    8.6897602305e-03    1.0532418750e+05
    8.6998054758e-03    1.0518030469e+05
    8.7098684162e-03    1.0503658594e+05
    8.7199453264e-03    1.0489324219e+05
    8.7297130376e-03    1.0475510156e+05
    8.7398001924e-03    1.0461321875e+05
    8.7498985231e-03    1.0447178906e+05
    8.7599987164e-03    1.0433094531e+05
    8.7697971612e-03    1.0419496094e+05
    8.7799094617e-03    1.0405530469e+05
    8.7897125632e-03    1.0392071094e+05
    8.7998230010e-03    1.0378269531e+05
    8.8099399582e-03    1.0364535156e+05
    8.8197588921e-03    1.0351261719e+05
    8.8298954070e-03    1.0337622656e+05
    8.8397292420e-03    1.0324466406e+05
    8.8498685509e-03    1.0310972656e+05
    8.8597713038e-03    1.0297860156e+05
    8.8698752224e-03    1.0284557031e+05
    8.8798990473e-03    1.0271437500e+05
    8.8898371905e-03    1.0258502344e+05
    8.8996691629e-03    1.0245762500e+05
    8.9097237214e-03    1.0232796875e+05
    8.9199962094e-03    1.0219615625e+05
    8.9297564700e-03    1.0207161719e+05
    8.9397002012e-03    1.0194544531e+05
    8.9498264715e-03    1.0181766406e+05
    8.9597487822e-03    1.0169308594e+05
    8.9698368683e-03    1.0156696094e+05
    8.9796921238e-03    1.0144427344e+05
    8.9896991849e-03    1.0132034375e+05
    8.9998561889e-03    1.0119535156e+05
    9.0097486973e-03    1.0107440625e+05
    9.0197781101e-03    1.0095237500e+05
    9.0299332514e-03    1.0082925000e+05
    9.0397801250e-03    1.0071028906e+05
    9.0497424826e-03    1.0059040625e+05
    9.0598203242e-03    1.0046963281e+05
    9.0695722029e-03    1.0035328906e+05
    9.0798744932e-03    1.0023089844e+05
    9.0898284689e-03    1.0011302344e+05
    9.0998634696e-03    9.9994367188e+04
    9.1099608690e-03    9.9875093750e+04
    9.1196363792e-03    9.9761039062e+04
    9.1298185289e-03    9.9641257812e+04
    9.1395843774e-03    9.9526914062e+04
    9.1498745605e-03    9.9407312500e+04
    9.1597409919e-03    9.9293101562e+04
    9.1696614400e-03    9.9178914062e+04
    9.1796517372e-03    9.9064851562e+04
    9.1896830127e-03    9.8951500000e+04
    9.1997524723e-03    9.8838789062e+04
    9.2098787427e-03    9.8726812500e+04
    9.2195803300e-03    9.8620664062e+04
    9.2298239470e-03    9.8510250000e+04
    9.2395897955e-03    9.8405625000e+04
    9.2499488965e-03    9.8296085938e+04
    9.2598088086e-03    9.8191812500e+04
    9.2697162181e-03    9.8087398438e+04
    9.2797148973e-03    9.7981460938e+04
    9.2897154391e-03    9.7875585938e+04
    9.2997746542e-03    9.7768281250e+04
    9.3098422512e-03    9.7659781250e+04
    9.3194777146e-03    9.7555906250e+04
    9.3297194690e-03    9.7445562500e+04
    9.3399342149e-03    9.7335593750e+04
    9.3496860936e-03    9.7232382812e+04
    9.3594649807e-03    9.7129375000e+04
    9.3698492274e-03    9.7021367188e+04
    9.3797789887e-03    9.6919531250e+04
    9.3896631151e-03    9.6817976562e+04
    9.3995975330e-03    9.6717929688e+04
    9.4095421955e-03    9.6618750000e+04
    9.4195269048e-03    9.6520023438e+04
    9.4295525923e-03    9.6421625000e+04
    9.4396183267e-03    9.6322656250e+04
    9.4497362152e-03    9.6224148438e+04
    9.4598736614e-03    9.6126000000e+04
    9.4694783911e-03    9.6032914062e+04
    9.4796912745e-03    9.5934460938e+04
    9.4898473471e-03    9.5835898438e+04
    9.4996048138e-03    9.5742523438e+04
    9.5098270103e-03    9.5642960938e+04
    9.5196058974e-03    9.5548570312e+04
    9.5299333334e-03    9.5448039062e+04
    9.5396284014e-03    9.5353710938e+04
    9.5498245209e-03    9.5254898438e+04
    9.5598381013e-03    9.5158617188e+04
    9.5695722848e-03    9.5066242188e+04
    9.5798978582e-03    9.4969851562e+04
    9.5897596329e-03    9.4879460938e+04
    9.5996074378e-03    9.4790781250e+04
    9.6098184586e-03    9.4700257812e+04
    9.6198823303e-03    9.4611835938e+04
    9.6297562122e-03    9.4525226562e+04
    9.6397353336e-03    9.4437179688e+04
    9.6496939659e-03    9.4348273438e+04
    9.6597904339e-03    9.4256789062e+04
    9.6697947010e-03    9.4165085938e+04
    9.6798995510e-03    9.4071906250e+04
    9.6898917109e-03    9.3980039062e+04
    9.6998978406e-03    9.3888937500e+04
    9.7099523991e-03    9.3799335938e+04
    9.7199082375e-03    9.3712257812e+04
    9.7299776971e-03    9.3626164062e+04
    9.7398599610e-03    9.3543585938e+04
    9.7498577088e-03    9.3461414062e+04
    9.7599271685e-03    9.3379343750e+04
    9.7698234022e-03    9.3298601562e+04
    9.7798686475e-03    9.3215960938e+04
    9.7898626700e-03    9.3132851562e+04
    9.7998762503e-03    9.3048648438e+04
    9.8099289462e-03    9.2963132812e+04
    9.8198279738e-03    9.2878250000e+04
    9.8299384117e-03    9.2791648438e+04
    9.8398486152e-03    9.2707648438e+04
    9.8499627784e-03    9.2623429688e+04
    9.8597975448e-03    9.2543320312e+04
    9.8697766662e-03    9.2463914062e+04
    9.8798787221e-03    9.2385273438e+04
    9.8898401484e-03    9.2308914062e+04
    9.8998909816e-03    9.2232554688e+04
    9.9097751081e-03    9.2157351562e+04
    9.9199665710e-03    9.2078851562e+04
    9.9299754947e-03    9.2000351562e+04
    9.9397832528e-03    9.1922125000e+04
    9.9498815835e-03    9.1840593750e+04
    9.9597722292e-03    9.1760476562e+04
    9.9699450657e-03    9.1678843750e+04
    9.9799083546e-03    9.1600500000e+04
    9.9898995832e-03    9.1524132812e+04
    9.9999243394e-03    9.1449898438e+04
    1.0009970516e-02    9.1377539062e+04
    1.0019789450e-02    9.1307976562e+04
    1.0029888712e-02    9.1236445312e+04
    1.0039999150e-02    9.1163773438e+04
    1.0049888864e-02    9.1091023438e+04
    1.0059788823e-02    9.1016523438e+04
    1.0069960728e-02    9.0938726562e+04
    1.0079905391e-02    9.0862343750e+04
    1.0089853778e-02    9.0786750000e+04
    1.0099835694e-02    9.0712687500e+04
    1.0109814815e-02    9.0640929688e+04
    1.0119816288e-02    9.0571414062e+04
    1.0129845701e-02    9.0503710938e+04
    1.0139862075e-02    9.0437125000e+04
    1.0149916634e-02    9.0369960938e+04
    1.0159969330e-02    9.0301289062e+04
    1.0169789195e-02    9.0232367188e+04
    1.0179885663e-02    9.0159898438e+04
    1.0189969093e-02    9.0086585938e+04
    1.0199843906e-02    9.0015085938e+04
    1.0209982283e-02    8.9943085938e+04
    1.0219851509e-02    8.9875093750e+04
    1.0229748674e-02    8.9809289062e+04
    1.0239930823e-02    8.9743781250e+04
    1.0249860585e-02    8.9681148438e+04
    1.0259790346e-02    8.9618523438e+04
    1.0269743390e-02    8.9554625000e+04
    1.0279990733e-02    8.9487023438e+04
    1.0289963335e-02    8.9419398438e+04
    1.0299945250e-02    8.9350601562e+04
    1.0309950449e-02    8.9281820312e+04
    1.0319972411e-02    8.9214351562e+04
    1.0329986922e-02    8.9149250000e+04
    1.0339746252e-02    8.9088179688e+04
    1.0349803604e-02    8.9027164062e+04
    1.0359866545e-02    8.8966968750e+04
    1.0369922034e-02    8.8906460938e+04
    1.0379990563e-02    8.8844585938e+04
    1.0389825329e-02    8.8782523438e+04
    1.0399919935e-02    8.8717367188e+04
    1.0409746319e-02    8.8653242188e+04
    1.0419860482e-02    8.8587781250e+04
    1.0429996997e-02    8.8523968750e+04
    1.0439859703e-02    8.8464273438e+04
    1.0449991561e-02    8.8405117188e+04
    1.0459882207e-02    8.8348562500e+04
    1.0469784029e-02    8.8292093750e+04
    1.0479943827e-02    8.8233257812e+04
    1.0489845648e-02    8.8174375000e+04
    1.0499769822e-02    8.8113835938e+04
    1.0509969667e-02    8.8050906250e+04
    1.0519895703e-02    8.7990062500e+04
    1.0529832914e-02    8.7930531250e+04
    1.0539785028e-02    8.7872851562e+04
    1.0549743660e-02    8.7817093750e+04
    1.0559971444e-02    8.7761148438e+04
    1.0569942184e-02    8.7706851562e+04
    1.0579922237e-02    8.7651773438e+04
    1.0589902289e-02    8.7595257812e+04
    1.0599887930e-02    8.7537445312e+04
    1.0609884746e-02    8.7479085938e+04
    1.0619890876e-02    8.7421179688e+04
    1.0629896075e-02    8.7364570312e+04
    1.0639907792e-02    8.7309671875e+04
    1.0649926960e-02    8.7256312500e+04
    1.0659954511e-02    8.7203875000e+04
    1.0669980198e-02    8.7151492188e+04
    1.0679736733e-02    8.7099757812e+04
    1.0689773597e-02    8.7045296875e+04
    1.0699816979e-02    8.6989796875e+04
    1.0709865950e-02    8.6934218750e+04
    1.0719922371e-02    8.6879625000e+04
    1.0729981586e-02    8.6826578125e+04
    1.0739770718e-02    8.6776320312e+04
    1.0749829002e-02    8.6725492188e+04
    1.0759889148e-02    8.6674914062e+04
    1.0769953020e-02    8.6624054688e+04
    1.0779747739e-02    8.6573882812e+04
    1.0789813474e-02    8.6521539062e+04
    1.0799885727e-02    8.6468867188e+04
    1.0809963569e-02    8.6416632812e+04
    1.0819771327e-02    8.6366726562e+04
    1.0829852894e-02    8.6316531250e+04
    1.0839934461e-02    8.6267343750e+04
    1.0849743150e-02    8.6219968750e+04
    1.0859824717e-02    8.6171164062e+04
    1.0869906284e-02    8.6121921875e+04
    1.0879987851e-02    8.6072257812e+04
    1.0889796540e-02    8.6023695312e+04
    1.0899878107e-02    8.5973992188e+04
    1.0909960605e-02    8.5925164062e+04
    1.0919770226e-02    8.5878750000e+04
    1.0929853655e-02    8.5831859375e+04
    1.0939938016e-02    8.5785296875e+04
    1.0949750431e-02    8.5739906250e+04
    1.0959835723e-02    8.5692921875e+04
    1.0969921947e-02    8.5645695312e+04
    1.0979735292e-02    8.5599789062e+04
    1.0989822447e-02    8.5552960938e+04
    1.0999909602e-02    8.5506757812e+04
    1.1009998620e-02    8.5461218750e+04
    1.1019815691e-02    8.5417375000e+04
    1.1029905640e-02    8.5372523438e+04
    1.1039995588e-02    8.5327726562e+04
    1.1049813591e-02    8.5284171875e+04
    1.1059904471e-02    8.5239406250e+04
    1.1069996282e-02    8.5194601562e+04
    1.1079815216e-02    8.5151132812e+04
    1.1089907028e-02    8.5106992188e+04
    1.1099997908e-02    8.5063664062e+04
    1.1109816842e-02    8.5022023438e+04
    1.1119909585e-02    8.4979234375e+04
    1.1129731312e-02    8.4937421875e+04
    1.1139829643e-02    8.4894445312e+04
    1.1149932630e-02    8.4851648438e+04
    1.1159768328e-02    8.4810257812e+04
    1.1169876903e-02    8.4768125000e+04
    1.1179984547e-02    8.4726367188e+04
    1.1189817451e-02    8.4685921875e+04
    1.1199922301e-02    8.4644578125e+04
    1.1209754273e-02    8.4604710938e+04
    1.1219859123e-02    8.4563929688e+04
    1.1229965836e-02    8.4523062500e+04
    1.1239802465e-02    8.4483382812e+04
    1.1249913834e-02    8.4442953125e+04
    1.1259751394e-02    8.4403984375e+04
    1.1269861832e-02    8.4364273438e+04
    1.1279973201e-02    8.4324851562e+04
    1.1289810762e-02    8.4286640625e+04
    1.1299922131e-02    8.4247507812e+04
    1.1309759691e-02    8.4209656250e+04
    1.1319871061e-02    8.4171007812e+04
    1.1329981498e-02    8.4132562500e+04
    1.1339819059e-02    8.4095335938e+04
    1.1349931359e-02    8.4057320312e+04
    1.1359770782e-02    8.4020625000e+04
    1.1369882151e-02    8.3983187500e+04
    1.1379994452e-02    8.3945929688e+04
    1.1389832944e-02    8.3909781250e+04
    1.1399944313e-02    8.3872750000e+04
    1.1409783736e-02    8.3836875000e+04
    1.1419896036e-02    8.3800242188e+04
    1.1429735459e-02    8.3764906250e+04
    1.1439847760e-02    8.3728882812e+04
    1.1449960060e-02    8.3693023438e+04
    1.1459799483e-02    8.3658218750e+04
    1.1469911784e-02    8.3622632812e+04
    1.1479752138e-02    8.3588265625e+04
    1.1489865370e-02    8.3553187500e+04
    1.1499977671e-02    8.3518375000e+04
    1.1509818025e-02    8.3484750000e+04
    1.1519930325e-02    8.3450351562e+04
    1.1529770680e-02    8.3417062500e+04
    1.1539883912e-02    8.3383148438e+04
    1.1549998075e-02    8.3349437500e+04
    1.1559838429e-02    8.3316734375e+04
    1.1569951661e-02    8.3283343750e+04
    1.1579792015e-02    8.3251117188e+04
    1.1589906178e-02    8.3218132812e+04
    1.1599746533e-02    8.3186187500e+04
    1.1609860696e-02    8.3153617188e+04
    1.1619974859e-02    8.3121242188e+04
    1.1629815213e-02    8.3089875000e+04
    1.1639929377e-02    8.3057859375e+04
    1.1649770662e-02    8.3026921875e+04
    1.1659884825e-02    8.2995304688e+04
    1.1669998989e-02    8.2963843750e+04
    1.1679840274e-02    8.2933445312e+04
    1.1689954437e-02    8.2902484375e+04
    1.1699796654e-02    8.2872640625e+04
    1.1709911749e-02    8.2842140625e+04
    1.1719753034e-02    8.2812554688e+04
    1.1729868129e-02    8.2782289062e+04
    1.1739983223e-02    8.2752250000e+04
    1.1749825440e-02    8.2723242188e+04
    1.1759940535e-02    8.2693640625e+04
    1.1769782752e-02    8.2665070312e+04
    1.1779897846e-02    8.2635890625e+04
    1.1789740063e-02    8.2607617188e+04
    1.1799856089e-02    8.2578671875e+04
    1.1809972115e-02    8.2549937500e+04
    1.1819815263e-02    8.2522234375e+04
    1.1829931289e-02    8.2494039062e+04
    1.1839774437e-02    8.2466757812e+04
    1.1849890463e-02    8.2438796875e+04
    1.1859734543e-02    8.2411781250e+04
    1.1869851500e-02    8.2384335938e+04
    1.1879968457e-02    8.2357070312e+04
    1.1889812537e-02    8.2330585938e+04
    1.1899930425e-02    8.2303562500e+04
    1.1909775436e-02    8.2277554688e+04
    1.1919893324e-02    8.2250968750e+04
    1.1929737404e-02    8.2225226562e+04
    1.1939855292e-02    8.2198984375e+04
    1.1949974112e-02    8.2172945312e+04
    1.1959819123e-02    8.2147781250e+04
    1.1969937943e-02    8.2122140625e+04
    1.1979782954e-02    8.2097367188e+04
    1.1989902705e-02    8.2072015625e+04
    1.1999748647e-02    8.2047492188e+04
    1.2009869330e-02    8.2022515625e+04
    1.2019989081e-02    8.1997812500e+04
    1.2029835954e-02    8.1973976562e+04
    1.2039956637e-02    8.1949578125e+04
    1.2049803510e-02    8.1925906250e+04
    1.2059924193e-02    8.1901773438e+04
    1.2069771998e-02    8.1878570312e+04
    1.2079892680e-02    8.1854968750e+04
    1.2089740485e-02    8.1832140625e+04
    1.2099862099e-02    8.1808781250e+04
    1.2109983712e-02    8.1785554688e+04
    1.2119831517e-02    8.1763203125e+04
    1.2129953131e-02    8.1740476562e+04
    1.2139801867e-02    8.1718484375e+04
    1.2149925344e-02    8.1695945312e+04
    1.2159774080e-02    8.1674242188e+04
    1.2169897556e-02    8.1652242188e+04
    1.2179748155e-02    8.1630921875e+04
    1.2189870700e-02    8.1609062500e+04
    1.2199994177e-02    8.1587484375e+04
    1.2209844775e-02    8.1566734375e+04
    1.2219968252e-02    8.1545484375e+04
    1.2229818851e-02    8.1524945312e+04
    1.2239943258e-02    8.1504085938e+04
    1.2249794789e-02    8.1483945312e+04
    1.2259920128e-02    8.1463351562e+04
    1.2269771658e-02    8.1443523438e+04
    1.2279896997e-02    8.1423335938e+04
    1.2289748527e-02    8.1403851562e+04
    1.2299874797e-02    8.1384000000e+04
    1.2309727259e-02    8.1364851562e+04
    1.2319852598e-02    8.1345312500e+04
    1.2329979800e-02    8.1325945312e+04
    1.2339832261e-02    8.1307320312e+04
    1.2349959463e-02    8.1288382812e+04
    1.2359812856e-02    8.1270070312e+04
    1.2369940057e-02    8.1251320312e+04
    1.2379794382e-02    8.1233242188e+04
    1.2389921583e-02    8.1214945312e+04
    1.2399775907e-02    8.1197382812e+04
    1.2409904040e-02    8.1179437500e+04
    1.2419759296e-02    8.1162046875e+04
    1.2429887429e-02    8.1144320312e+04
    1.2439742684e-02    8.1127257812e+04
    1.2449871749e-02    8.1109929688e+04
    1.2459727004e-02    8.1093312500e+04
    1.2469856068e-02    8.1076390625e+04
    1.2479986064e-02    8.1059507812e+04
    1.2489842251e-02    8.1043203125e+04
    1.2499972247e-02    8.1026718750e+04
    1.2509828433e-02    8.1010867188e+04
    1.2519958429e-02    8.0994679688e+04
    1.2529815547e-02    8.0979117188e+04
    1.2539946474e-02    8.0963296875e+04
    1.2549803592e-02    8.0948015625e+04
    1.2559934519e-02    8.0932523438e+04
    1.2569791637e-02    8.0917656250e+04
    1.2579923496e-02    8.0902476562e+04
    1.2589780614e-02    8.0887867188e+04
    1.2599912472e-02    8.0873070312e+04
    1.2609771453e-02    8.0858796875e+04
    1.2619903311e-02    8.0844218750e+04
    1.2629762292e-02    8.0830226562e+04
    1.2639895082e-02    8.0816015625e+04
    1.2649753131e-02    8.0802367188e+04
    1.2659885921e-02    8.0788554688e+04
    1.2669745833e-02    8.0775273438e+04
    1.2679879554e-02    8.0761703125e+04
    1.2689739466e-02    8.0748601562e+04
    1.2699873187e-02    8.0735304688e+04
    1.2709733099e-02    8.0722601562e+04
    1.2719866820e-02    8.0709765625e+04
    1.2729726732e-02    8.0697406250e+04
    1.2739861384e-02    8.0684820312e+04
    1.2749996036e-02    8.0672398438e+04
    1.2759857811e-02    8.0660460938e+04
    1.2769992463e-02    8.0648328125e+04
    1.2779853307e-02    8.0636710938e+04
    1.2789988890e-02    8.0624984375e+04
    1.2799850665e-02    8.0613671875e+04
    1.2809986249e-02    8.0602148438e+04
    1.2819848023e-02    8.0591179688e+04
    1.2829984538e-02    8.0580140625e+04
    1.2839846313e-02    8.0569445312e+04
    1.2849982828e-02    8.0558570312e+04
    1.2859845534e-02    8.0548273438e+04
    1.2869982049e-02    8.0537859375e+04
    1.2879844755e-02    8.0527757812e+04
    1.2889982201e-02    8.0517554688e+04
    1.2899845839e-02    8.0507875000e+04
    1.2909983285e-02    8.0498031250e+04
    1.2919846922e-02    8.0488570312e+04
    1.2929984368e-02    8.0479054688e+04
    1.2939848006e-02    8.0469945312e+04
    1.2949986383e-02    8.0460695312e+04
    1.2959850021e-02    8.0451875000e+04
    1.2969988398e-02    8.0442992188e+04
    1.2979852967e-02    8.0434531250e+04
    1.2989992276e-02    8.0426031250e+04
    1.2999856845e-02    8.0417867188e+04
    1.3009995222e-02    8.0409554688e+04
    1.3019860722e-02    8.0401593750e+04
    1.3030000031e-02    8.0393648438e+04
    1.3039865531e-02    8.0386179688e+04
    1.3049731031e-02    8.0378867188e+04
    1.3059870340e-02    8.0371406250e+04
    1.3069735840e-02    8.0364242188e+04
    1.3079876080e-02    8.0357117188e+04
    1.3089741580e-02    8.0350398438e+04
    1.3099881820e-02    8.0343593750e+04
    1.3109748252e-02    8.0337093750e+04
    1.3119888492e-02    8.0330609375e+04
    1.3129754923e-02    8.0324460938e+04
    1.3139896095e-02    8.0318250000e+04
    1.3149762526e-02    8.0312398438e+04
    1.3159903698e-02    8.0306601562e+04
    1.3169771060e-02    8.0301046875e+04
    1.3179912232e-02    8.0295484375e+04
    1.3189779595e-02    8.0290320312e+04
    1.3199920766e-02    8.0285171875e+04
    1.3209788129e-02    8.0280234375e+04
    1.3219929300e-02    8.0275367188e+04
    1.3229797594e-02    8.0270843750e+04
    1.3239938766e-02    8.0266273438e+04
    1.3249807060e-02    8.0261945312e+04
    1.3259949163e-02    8.0257695312e+04
    1.3269817457e-02    8.0253710938e+04
    1.3279959559e-02    8.0249757812e+04
    1.3289827853e-02    8.0246101562e+04
    1.3299969956e-02    8.0242539062e+04
    1.3309839182e-02    8.0239234375e+04
    1.3319981284e-02    8.0236015625e+04
    1.3329850510e-02    8.0233007812e+04
    1.3339992613e-02    8.0230023438e+04
    1.3349861838e-02    8.0227304688e+04
    1.3359731063e-02    8.0224828125e+04
    1.3369874097e-02    8.0222484375e+04
    1.3379743323e-02    8.0220289062e+04
    1.3389886357e-02    8.0218085938e+04
    1.3399755582e-02    8.0216140625e+04
    1.3409898616e-02    8.0214460938e+04
    1.3419767842e-02    8.0212984375e+04
    1.3429910876e-02    8.0211484375e+04
    1.3439781033e-02    8.0210148438e+04
    1.3449924067e-02    8.0209054688e+04
    1.3459794223e-02    8.0208179688e+04
    1.3469937257e-02    8.0207343750e+04
    1.3479807414e-02    8.0206703125e+04
    1.3489951380e-02    8.0206281250e+04
    1.3499820605e-02    8.0205992188e+04
    1.3509964570e-02    8.0205835938e+04
    1.3519833796e-02    8.0205929688e+04
    1.3529977761e-02    8.0206210938e+04
    1.3539847918e-02    8.0206570312e+04
    1.3549991883e-02    8.0207156250e+04
    1.3559862040e-02    8.0207929688e+04
    1.3569732197e-02    8.0208812500e+04
    1.3579876162e-02    8.0209859375e+04
    1.3589745387e-02    8.0211109375e+04
    1.3599889353e-02    8.0212609375e+04
    1.3609759510e-02    8.0214289062e+04
    1.3619903475e-02    8.0216250000e+04
    1.3629773632e-02    8.0218351562e+04
    1.3639917597e-02    8.0220664062e+04
    1.3649787754e-02    8.0223070312e+04
    1.3659931719e-02    8.0225687500e+04
    1.3669801876e-02    8.0228398438e+04
    1.3679945841e-02    8.0231367188e+04
    1.3689815998e-02    8.0234406250e+04
    1.3699959964e-02    8.0237656250e+04
    1.3709830120e-02    8.0240914062e+04
    1.3719974086e-02    8.0244398438e+04
    1.3729843311e-02    8.0248070312e+04
    1.3739987276e-02    8.0252210938e+04
    1.3749857433e-02    8.0256453125e+04
    1.3759727590e-02    8.0260679688e+04
    1.3769871555e-02    8.0265031250e+04
    1.3779740781e-02    8.0269492188e+04
    1.3789884746e-02    8.0274390625e+04
    1.3799754903e-02    8.0279382812e+04
    1.3809898868e-02    8.0284687500e+04
    1.3819769025e-02    8.0289968750e+04
    1.3829912990e-02    8.0295515625e+04
    1.3839782216e-02    8.0301132812e+04
    1.3849926181e-02    8.0307171875e+04
    1.3859796338e-02    8.0313156250e+04
    1.3869939372e-02    8.0319390625e+04
    1.3879809529e-02    8.0325679688e+04
    1.3889953494e-02    8.0332406250e+04
    1.3899822719e-02    8.0339140625e+04
    1.3909966685e-02    8.0346320312e+04
    1.3919835910e-02    8.0353546875e+04
    1.3929979876e-02    8.0361109375e+04
    1.3939849101e-02    8.0368562500e+04
    1.3949993066e-02    8.0376421875e+04
    1.3959862292e-02    8.0384289062e+04
    1.3969732448e-02    8.0392335938e+04
    1.3979875483e-02    8.0400820312e+04
    1.3989744708e-02    8.0409273438e+04
    1.3999888673e-02    8.0418156250e+04
    1.4009757899e-02    8.0426992188e+04
    1.4019900933e-02    8.0436296875e+04
    1.4029770158e-02    8.0445609375e+04
    1.4039914124e-02    8.0455359375e+04
    1.4049783349e-02    8.0464945312e+04
    1.4059926383e-02    8.0475000000e+04
    1.4069795609e-02    8.0485085938e+04
    1.4079939574e-02    8.0495710938e+04
    1.4089808799e-02    8.0506179688e+04
    1.4099951833e-02    8.0517125000e+04
    1.4109821059e-02    8.0528023438e+04
    1.4119965024e-02    8.0539437500e+04
    1.4129835181e-02    8.0550726562e+04
    1.4139979146e-02    8.0562585938e+04
    1.4149849303e-02    8.0574351562e+04
    1.4159994200e-02    8.0586593750e+04
    1.4169864357e-02    8.0598742188e+04
    1.4179735444e-02    8.0611187500e+04
    1.4189881273e-02    8.0624164062e+04
    1.4199752361e-02    8.0636937500e+04
    1.4209899120e-02    8.0650351562e+04
    1.4219771139e-02    8.0663695312e+04
    1.4229917899e-02    8.0677656250e+04
    1.4239790849e-02    8.0691460938e+04
    1.4249938540e-02    8.0705859375e+04
    1.4259812422e-02    8.0720093750e+04
    1.4269961044e-02    8.0739140625e+04
    1.4279834926e-02    8.0982585938e+04
    1.4289984480e-02    8.8826539062e+04
    1.4299859293e-02    1.0359789844e+05
    1.4309735037e-02    1.0247253125e+05
    1.4319885522e-02    1.0222602344e+05
    1.4329763129e-02    1.0233994531e+05
    1.4339914545e-02    1.0233971094e+05
    1.4349791221e-02    1.0227441406e+05
    1.4359943569e-02    1.0220933594e+05
    1.4369822107e-02    1.0215916406e+05
    1.4379974455e-02    1.0211730469e+05
    1.4389852993e-02    1.0207125000e+05
    1.4399731532e-02    1.0201853906e+05
    1.4409886673e-02    1.0196716406e+05
    1.4419768006e-02    1.0192083594e+05
    1.4429924078e-02    1.0187285156e+05
    1.4439806342e-02    1.0182466406e+05
    1.4449964277e-02    1.0177502344e+05
    1.4459849335e-02    1.0172787500e+05
    1.4469733462e-02    1.0168089844e+05
    1.4479893260e-02    1.0163271094e+05
    1.4489778318e-02    1.0158639844e+05
    1.4499939047e-02    1.0153765625e+05
    1.4509823173e-02    1.0149075000e+05
    1.4519983903e-02    1.0144528906e+05
    1.4529871754e-02    1.0139749219e+05
    1.4539759606e-02    1.0135208594e+05
    1.4549920335e-02    1.0130544531e+05
    1.4559808187e-02    1.0126022656e+05
    1.4569974504e-02    1.0121416406e+05
    1.4579867013e-02    1.0116791406e+05
    1.4589758590e-02    1.0112437500e+05
    1.4599924907e-02    1.0107783594e+05
    1.4609820209e-02    1.0103378906e+05
    1.4619991183e-02    1.0098825000e+05
    1.4629889280e-02    1.0094396094e+05
    1.4639788307e-02    1.0089984375e+05
    1.4649963006e-02    1.0085459375e+05
    1.4659862965e-02    1.0081080469e+05
    1.4669762924e-02    1.0076739844e+05
    1.4679941349e-02    1.0072285156e+05
    1.4689846896e-02    1.0067964844e+05
    1.4699751511e-02    1.0063653906e+05
    1.4709928073e-02    1.0059247656e+05
    1.4719832689e-02    1.0054994531e+05
    1.4729742892e-02    1.0050758594e+05
    1.4739930630e-02    1.0046414844e+05
    1.4749841765e-02    1.0042184375e+05
    1.4759753831e-02    1.0037964844e+05
    1.4769942500e-02    1.0033646875e+05
    1.4779859222e-02    1.0029466406e+05
    1.4789779671e-02    1.0025308594e+05
    1.4799976721e-02    1.0021053906e+05
    1.4809896238e-02    1.0016939844e+05
    1.4819816686e-02    1.0012839844e+05
    1.4829739928e-02    1.0008759375e+05
    1.4839943498e-02    1.0004577344e+05
    1.4849875122e-02    1.0000521094e+05
    1.4859803952e-02    9.9964789062e+04
    1.4869731851e-02    9.9924406250e+04
    1.4879941009e-02    9.9882976562e+04
    1.4889879152e-02    9.9843242188e+04
    1.4899820089e-02    9.9803023438e+04
    1.4909759164e-02    9.9762585938e+04
    1.4919972979e-02    9.9722445312e+04
    1.4929913916e-02    9.9683070312e+04
    1.4939859509e-02    9.9643226562e+04
    1.4949810691e-02    9.9603851562e+04
    1.4959761873e-02    9.9565164062e+04
    1.4969987795e-02    9.9525539062e+04
    1.4979938976e-02    9.9485812500e+04
    1.4989893883e-02    9.9447601562e+04
    1.4999854378e-02    9.9409437500e+04
    1.5009815805e-02    9.9370304688e+04
    1.5019777231e-02    9.9332476562e+04
    1.5029738657e-02    9.9293757812e+04
    1.5039980412e-02    9.9254914062e+04
    1.5049951151e-02    9.9216625000e+04
    1.5059925616e-02    9.9178750000e+04
    1.5069898218e-02    9.9141039062e+04
    1.5079870820e-02    9.9103226562e+04
    1.5089848079e-02    9.9065726562e+04
    1.5099829994e-02    9.9028320312e+04
    1.5109814703e-02    9.8990960938e+04
    1.5119798481e-02    9.8953695312e+04
    1.5129782259e-02    9.8916500000e+04
    1.5139767900e-02    9.8879398438e+04
    1.5149759129e-02    9.8842289062e+04
    1.5159755945e-02    9.8805210938e+04
    1.5169755556e-02    9.8768156250e+04
    1.5179754235e-02    9.8731320312e+04
    1.5189752914e-02    9.8694820312e+04
    1.5199754387e-02    9.8658437500e+04
    1.5209762380e-02    9.8622054688e+04
    1.5219773166e-02    9.8585593750e+04
    1.5229783021e-02    9.8548976562e+04
    1.5239792876e-02    9.8512093750e+04
    1.5249806456e-02    9.8475351562e+04
    1.5259821899e-02    9.8439343750e+04
    1.5269840136e-02    9.8403500000e+04
    1.5279861167e-02    9.8368968750e+04
    1.5289884992e-02    9.8335343750e+04
    1.5299911611e-02    9.8300929688e+04
    1.5309940092e-02    9.8265695312e+04
    1.5319972299e-02    9.8229289062e+04
    1.5329729766e-02    9.8193289062e+04
    1.5339765698e-02    9.8154664062e+04
    1.5349802561e-02    9.8116750000e+04
    1.5359845012e-02    9.8081656250e+04
    1.5369892120e-02    9.8047882812e+04
    1.5379941091e-02    9.8015664062e+04
    1.5389990062e-02    9.7984460938e+04
    1.5399760567e-02    9.7954898438e+04
    1.5409814194e-02    9.7922007812e+04
    1.5419872478e-02    9.7888195312e+04
    1.5429930761e-02    9.7852664062e+04
    1.5439993702e-02    9.7816023438e+04
    1.5449779108e-02    9.7779789062e+04
    1.5459842980e-02    9.7742851562e+04
    1.5469908714e-02    9.7707039062e+04
    1.5479980037e-02    9.7671898438e+04
    1.5489775687e-02    9.7639367188e+04
    1.5499852598e-02    9.7606437500e+04
    1.5509931371e-02    9.7574210938e+04
    1.5519731678e-02    9.7543101562e+04
    1.5529816039e-02    9.7511148438e+04
    1.5539902262e-02    9.7479289062e+04
    1.5549988486e-02    9.7446773438e+04
    1.5559799969e-02    9.7414664062e+04
    1.5569897369e-02    9.7381007812e+04
    1.5579995699e-02    9.7347312500e+04
    1.5589815564e-02    9.7315156250e+04
    1.5599918552e-02    9.7282632812e+04
    1.5609742142e-02    9.7251304688e+04
    1.5619846992e-02    9.7219007812e+04
    1.5629954636e-02    9.7186351562e+04
    1.5639787540e-02    9.7154562500e+04
    1.5649905428e-02    9.7122125000e+04
    1.5659740195e-02    9.7090773438e+04
    1.5669856220e-02    9.7058382812e+04
    1.5679977834e-02    9.7025906250e+04
    1.5689821914e-02    9.6994656250e+04
    1.5699949116e-02    9.6962648438e+04
    1.5709798783e-02    9.6931039062e+04
    1.5719935298e-02    9.6899164062e+04
    1.5729790553e-02    9.6868718750e+04
    1.5739927068e-02    9.6836554688e+04
    1.5749786049e-02    9.6805851562e+04
    1.5759931877e-02    9.6774687500e+04
    1.5769800171e-02    9.6744781250e+04
    1.5779951587e-02    9.6713054688e+04
    1.5789823607e-02    9.6683460938e+04
    1.5799984336e-02    9.6652757812e+04
    1.5809861943e-02    9.6623148438e+04
    1.5819739550e-02    9.6592914062e+04
    1.5829904005e-02    9.6562437500e+04
    1.5839792788e-02    9.6532625000e+04
    1.5849966556e-02    9.6501320312e+04
    1.5859855339e-02    9.6470914062e+04
    1.5869749710e-02    9.6440460938e+04
    1.5879929066e-02    9.6408539062e+04
    1.5889825299e-02    9.6378601562e+04
    1.5899721533e-02    9.6348367188e+04
    1.5909904614e-02    9.6318664062e+04
    1.5919813886e-02    9.6289726562e+04
    1.5929719433e-02    9.6262062500e+04
    1.5939909965e-02    9.6232710938e+04
    1.5949819237e-02    9.6204210938e+04
    1.5959732234e-02    9.6174523438e+04
    1.5969926491e-02    9.6143289062e+04
    1.5979837626e-02    9.6112656250e+04
    1.5989756212e-02    9.6082242188e+04
    1.5999963507e-02    9.6051898438e+04
    1.6009883955e-02    9.6023164062e+04
    1.6019800678e-02    9.5995132812e+04
    1.6029721126e-02    9.5967414062e+04
    1.6039926559e-02    9.5938710938e+04
    1.6049843282e-02    9.5910367188e+04
    1.6059752554e-02    9.5881507812e+04
    1.6069935635e-02    9.5851406250e+04
    1.6079833731e-02    9.5822031250e+04
    1.6089726239e-02    9.5792960938e+04
    1.6099896282e-02    9.5763351562e+04
    1.6109788790e-02    9.5734468750e+04
    1.6119809821e-02    9.5706156250e+04
    1.6129720956e-02    9.5679445312e+04
    1.6139803454e-02    9.5651187500e+04
    1.6149749979e-02    9.5623093750e+04
    1.6159858555e-02    9.5594656250e+04
    1.6169810668e-02    9.5565718750e+04
    1.6179913655e-02    9.5535617188e+04
    1.6189835966e-02    9.5507023438e+04
    1.6199899837e-02    9.5479335938e+04
    1.6209771857e-02    9.5451914062e+04
    1.6219774261e-02    9.5424789062e+04
    1.6229905188e-02    9.5396804688e+04
    1.6239816323e-02    9.5369093750e+04
    1.6249852255e-02    9.5340000000e+04
    1.6259655356e-02    9.5311718750e+04
    1.6269914806e-02    9.5282937500e+04
    1.6279933974e-02    9.5255210938e+04
    1.6289692372e-02    9.5229101562e+04
    1.6299916431e-02    9.5201664062e+04
    1.6309861094e-02    9.5174289062e+04
    1.6319883987e-02    9.5146632812e+04
    1.6329977661e-02    9.5117820312e+04
    1.6339749098e-02    9.5090492188e+04
    1.6349993646e-02    9.5061601562e+04
    1.6359988600e-02    9.5034898438e+04
    1.6369856894e-02    9.5008867188e+04
    1.6379991546e-02    9.4981335938e+04
    1.6389880329e-02    9.4954507812e+04
    1.6399798915e-02    9.4926976562e+04
    1.6409736127e-02    9.4899523438e+04
    1.6419952735e-02    9.4871812500e+04
    1.6429906711e-02    9.4845273438e+04
    1.6439868137e-02    9.4818960938e+04
    1.6449831426e-02    9.4792351562e+04
    1.6459798440e-02    9.4765304688e+04
    1.6469767317e-02    9.4737992188e+04
    1.6479738057e-02    9.4710882812e+04
    1.6489980742e-02    9.4683812500e+04
    1.6499957070e-02    9.4657679688e+04
    1.6509933397e-02    9.4631085938e+04
    1.6519911587e-02    9.4604773438e+04
    1.6529889777e-02    9.4578460938e+04
    1.6539867967e-02    9.4551023438e+04
    1.6549846157e-02    9.4524570312e+04
    1.6559826210e-02    9.4499093750e+04
    1.6569804400e-02    9.4472929688e+04
    1.6579782590e-02    9.4446429688e+04
    1.6589762643e-02    9.4420164062e+04
    1.6599740833e-02    9.4394226562e+04
    1.6609989107e-02    9.4366804688e+04
    1.6619967297e-02    9.4341148438e+04
    1.6629945487e-02    9.4315406250e+04
    1.6639923677e-02    9.4290125000e+04
    1.6649900004e-02    9.4263218750e+04
    1.6659878194e-02    9.4238007812e+04
    1.6669856384e-02    9.4211773438e+04
    1.6679832712e-02    9.4186320312e+04
    1.6689810902e-02    9.4160976562e+04
    1.6699787229e-02    9.4135523438e+04
    1.6709763557e-02    9.4110039062e+04
    1.6719739884e-02    9.4084523438e+04
    1.6729986295e-02    9.4058070312e+04
    1.6739960760e-02    9.4032851562e+04
    1.6749937087e-02    9.4006820312e+04
    1.6759913415e-02    9.3981492188e+04
    1.6769887879e-02    9.3955367188e+04
    1.6779862344e-02    9.3929937500e+04
    1.6789836809e-02    9.3904664062e+04
    1.6799811274e-02    9.3879757812e+04
    1.6809785739e-02    9.3855601562e+04
    1.6819760203e-02    9.3830960938e+04
    1.6829734668e-02    9.3806679688e+04
    1.6839977354e-02    9.3781585938e+04
    1.6849949956e-02    9.3756929688e+04
    1.6859922558e-02    9.3732414062e+04
    1.6869895160e-02    9.3707601562e+04
    1.6879867762e-02    9.3682625000e+04
    1.6889840364e-02    9.3657726562e+04
    1.6899812967e-02    9.3632781250e+04
    1.6909783706e-02    9.3607937500e+04
    1.6919756308e-02    9.3583742188e+04
    1.6929998994e-02    9.3558710938e+04
    1.6939973459e-02    9.3533804688e+04
    1.6949947923e-02    9.3509914062e+04
    1.6959922388e-02    9.3485929688e+04
    1.6969900578e-02    9.3461414062e+04
    1.6979882494e-02    9.3437273438e+04
    1.6989868134e-02    9.3413460938e+04
    1.6999857500e-02    9.3389585938e+04
    1.7009850591e-02    9.3365476562e+04
    1.7019849271e-02    9.3342250000e+04
    1.7029857263e-02    9.3318562500e+04
    1.7039874569e-02    9.3295320312e+04
    1.7049899325e-02    9.3271617188e+04
    1.7059929669e-02    9.3248898438e+04
    1.7069974914e-02    9.3224710938e+04
    1.7079764977e-02    9.3202242188e+04
    1.7089838162e-02    9.3178023438e+04
    1.7099920660e-02    9.3154617188e+04
    1.7109742388e-02    9.3131273438e+04
    1.7119852826e-02    9.3107250000e+04
    1.7129978165e-02    9.3083156250e+04
    1.7139844596e-02    9.3059960938e+04
    1.7149999738e-02    9.3036445312e+04
    1.7159894109e-02    9.3014085938e+04
    1.7169801518e-02    9.2991585938e+04
    1.7179999501e-02    9.2968914062e+04
    1.7189936712e-02    9.2946382812e+04
    1.7199883237e-02    9.2924164062e+04
    1.7209840938e-02    9.2901804688e+04
    1.7219807953e-02    9.2879281250e+04
    1.7229788005e-02    9.2856773438e+04
    1.7239773646e-02    9.2834007812e+04
    1.7249768600e-02    9.2811375000e+04
    1.7259778455e-02    9.2788773438e+04
    1.7269797623e-02    9.2766281250e+04
    1.7279826105e-02    9.2744148438e+04
    1.7289862037e-02    9.2721992188e+04
    1.7299903557e-02    9.2699750000e+04
    1.7309952527e-02    9.2678062500e+04
    1.7319725826e-02    9.2657218750e+04
    1.7329789698e-02    9.2634835938e+04
    1.7339862883e-02    9.2612539062e+04
    1.7349939793e-02    9.2591187500e+04
    1.7359741032e-02    9.2569750000e+04
    1.7369829118e-02    9.2547500000e+04
    1.7379919067e-02    9.2525781250e+04
    1.7389733344e-02    9.2505289062e+04
    1.7399834469e-02    9.2483531250e+04
    1.7409941182e-02    9.2461835938e+04
    1.7419768497e-02    9.2441531250e+04
    1.7429880798e-02    9.2419781250e+04
    1.7439721152e-02    9.2399195312e+04
    1.7449846491e-02    9.2377742188e+04
    1.7459973693e-02    9.2356789062e+04
    1.7469825223e-02    9.2335898438e+04
    1.7479961738e-02    9.2315226562e+04
    1.7489818856e-02    9.2294398438e+04
    1.7499959096e-02    9.2273914062e+04
    1.7509821802e-02    9.2253476562e+04
    1.7519965768e-02    9.2232976562e+04
    1.7529828474e-02    9.2212656250e+04
    1.7539972439e-02    9.2192101562e+04
    1.7549835145e-02    9.2171960938e+04
    1.7559980974e-02    9.2151656250e+04
    1.7569843680e-02    9.2131554688e+04
    1.7579987645e-02    9.2111445312e+04
    1.7589852214e-02    9.2091531250e+04
    1.7599999905e-02    9.2071492188e+04
    1.7609866336e-02    9.2051914062e+04
    1.7619734630e-02    9.2032460938e+04
    1.7629884183e-02    9.2012648438e+04
    1.7639752477e-02    9.1993273438e+04
    1.7649905756e-02    9.1973460938e+04
    1.7659775913e-02    9.1954156250e+04
    1.7669929191e-02    9.1934585938e+04
    1.7679803073e-02    9.1915687500e+04
    1.7689958215e-02    9.1895843750e+04
    1.7699833959e-02    9.1876882812e+04
    1.7709992826e-02    9.1858023438e+04
    1.7719870433e-02    9.1839117188e+04
    1.7729748040e-02    9.1820179688e+04
    1.7739910632e-02    9.1801375000e+04
    1.7749790102e-02    9.1783023438e+04
    1.7759954557e-02    9.1763562500e+04
    1.7769837752e-02    9.1744820312e+04
    1.7779720947e-02    9.1727148438e+04
    1.7789889127e-02    9.1708125000e+04
    1.7799774185e-02    9.1689835938e+04
    1.7809942365e-02    9.1671476562e+04
    1.7819831148e-02    9.1653617188e+04
    1.7829718068e-02    9.1635257812e+04
    1.7839889973e-02    9.1617062500e+04
    1.7849780619e-02    9.1599101562e+04
    1.7859952524e-02    9.1581101562e+04
    1.7869845033e-02    9.1563531250e+04
    1.7879735678e-02    9.1546335938e+04
    1.7889911309e-02    9.1528101562e+04
    1.7899803817e-02    9.1510968750e+04
    1.7909979448e-02    9.1492664062e+04
    1.7919873819e-02    9.1475539062e+04
    1.7929768190e-02    9.1458148438e+04
    1.7939945683e-02    9.1440789062e+04
    1.7949840054e-02    9.1423687500e+04
    1.7959736288e-02    9.1406882812e+04
    1.7969913781e-02    9.1389382812e+04
    1.7979810014e-02    9.1372664062e+04
    1.7989989370e-02    9.1355195312e+04
    1.7999885604e-02    9.1338617188e+04
    1.8009781837e-02    9.1322093750e+04
    1.8019961193e-02    9.1305242188e+04
    1.8029859290e-02    9.1288976562e+04
    1.8039755523e-02    9.1272562500e+04
    1.8049936742e-02    9.1255773438e+04
    1.8059834838e-02    9.1239476562e+04
    1.8069731072e-02    9.1223554688e+04
    1.8079912290e-02    9.1207085938e+04
    1.8089810386e-02    9.1191007812e+04
    1.8099989742e-02    9.1175101562e+04
    1.8109887838e-02    9.1159312500e+04
    1.8119785935e-02    9.1143031250e+04
    1.8129967153e-02    9.1126976562e+04
    1.8139865249e-02    9.1111773438e+04
    1.8149763346e-02    9.1096304688e+04
    1.8159944564e-02    9.1080148438e+04
    1.8169842660e-02    9.1065210938e+04
    1.8179742619e-02    9.1050156250e+04
    1.8189923838e-02    9.1033898438e+04
    1.8199821934e-02    9.1018804688e+04
    1.8209721893e-02    9.1004062500e+04
    1.8219903111e-02    9.0988523438e+04
    1.8229803070e-02    9.0973664062e+04
    1.8239984289e-02    9.0958882812e+04
    1.8249884248e-02    9.0943851562e+04
    1.8259782344e-02    9.0929398438e+04
    1.8269965425e-02    9.0914351562e+04
    1.8279865384e-02    9.0899726562e+04
    1.8289763480e-02    9.0885414062e+04
    1.8299946561e-02    9.0870507812e+04
    1.8309846520e-02    9.0856531250e+04
    1.8319746479e-02    9.0842382812e+04
    1.8329929560e-02    9.0828125000e+04
    1.8339829519e-02    9.0813960938e+04
    1.8349731341e-02    9.0799976562e+04
    1.8359914422e-02    9.0785476562e+04
    1.8369814381e-02    9.0771757812e+04
    1.8379999325e-02    9.0757835938e+04
    1.8389899284e-02    9.0744148438e+04
    1.8399801105e-02    9.0730500000e+04
    1.8409986049e-02    9.0716898438e+04
    1.8419887871e-02    9.0703585938e+04
    1.8429787830e-02    9.0690148438e+04
    1.8439972773e-02    9.0676468750e+04
    1.8449876457e-02    9.0663218750e+04
    1.8459778279e-02    9.0650085938e+04
    1.8469963223e-02    9.0636789062e+04
    1.8479866907e-02    9.0623492188e+04
    1.8489770591e-02    9.0611023438e+04
    1.8499957398e-02    9.0598117188e+04
    1.8509861082e-02    9.0584960938e+04
    1.8519764766e-02    9.0572460938e+04
    1.8529951572e-02    9.0559843750e+04
    1.8539855257e-02    9.0547320312e+04
    1.8549760804e-02    9.0534492188e+04
    1.8559949473e-02    9.0522054688e+04
    1.8569853157e-02    9.0510023438e+04
    1.8579760566e-02    9.0497476562e+04
    1.8589949235e-02    9.0484960938e+04
    1.8599854782e-02    9.0473273438e+04
    1.8609762192e-02    9.0461429688e+04
    1.8619952723e-02    9.0449070312e+04
    1.8629860133e-02    9.0437468750e+04
    1.8639767542e-02    9.0425781250e+04
    1.8649959937e-02    9.0413820312e+04
    1.8659867346e-02    9.0402164062e+04
    1.8669776618e-02    9.0390851562e+04
    1.8679969013e-02    9.0378789062e+04
    1.8689880148e-02    9.0367523438e+04
    1.8699789420e-02    9.0356218750e+04
    1.8709983677e-02    9.0344773438e+04
    1.8719894812e-02    9.0333648438e+04
    1.8729805946e-02    9.0322757812e+04
    1.8739718944e-02    9.0311773438e+04
    1.8749913201e-02    9.0300664062e+04
    1.8759826198e-02    9.0289742188e+04
    1.8769739196e-02    9.0279179688e+04
    1.8779937178e-02    9.0268164062e+04
    1.8789850175e-02    9.0257632812e+04
    1.8799765036e-02    9.0247023438e+04
    1.8809963018e-02    9.0236351562e+04
    1.8819879740e-02    9.0225789062e+04
    1.8829794601e-02    9.0215570312e+04
    1.8839994445e-02    9.0204976562e+04
    1.8849911168e-02    9.0194976562e+04
    1.8859827891e-02    9.0184867188e+04
    1.8869746476e-02    9.0174867188e+04
    1.8879948184e-02    9.0164867188e+04
    1.8889866769e-02    9.0155320312e+04
    1.8899785355e-02    9.0145476562e+04
    1.8909988925e-02    9.0135320312e+04
    1.8919907510e-02    9.0126281250e+04
    1.8929829821e-02    9.0116898438e+04
    1.8939750269e-02    9.0106914062e+04
    1.8949955702e-02    9.0097679688e+04
    1.8959876150e-02    9.0088726562e+04
    1.8969798461e-02    9.0079093750e+04
    1.8979722634e-02    9.0069968750e+04
    1.8989929929e-02    9.0060750000e+04
    1.8999852240e-02    9.0051835938e+04
    1.9009778276e-02    9.0042804688e+04
    1.9019985572e-02    9.0033812500e+04
    1.9029911608e-02    9.0025226562e+04
    1.9039837644e-02    9.0016476562e+04
    1.9049763680e-02    9.0008031250e+04
    1.9059974700e-02    8.9999320312e+04
    1.9069902599e-02    8.9990867188e+04
    1.9079830498e-02    8.9982523438e+04
    1.9089758396e-02    8.9974398438e+04
    1.9099971280e-02    8.9965835938e+04
    1.9109901041e-02    8.9957789062e+04
    1.9119830802e-02    8.9949835938e+04
    1.9129760563e-02    8.9941898438e+04
    1.9139975309e-02    8.9933906250e+04
    1.9149906933e-02    8.9926101562e+04
    1.9159838557e-02    8.9918507812e+04
    1.9169772044e-02    8.9910851562e+04
    1.9179988652e-02    8.9903179688e+04
    1.9189922139e-02    8.9895726562e+04
    1.9199855626e-02    8.9888351562e+04
    1.9209790975e-02    8.9881054688e+04
    1.9219726324e-02    8.9873914062e+04
    1.9229944795e-02    8.9866679688e+04
    1.9239882007e-02    8.9859710938e+04
    1.9249817356e-02    8.9852562500e+04
    1.9259754568e-02    8.9845500000e+04
    1.9269976765e-02    8.9838492188e+04
    1.9279915839e-02    8.9832023438e+04
    1.9289853051e-02    8.9825101562e+04
    1.9299792126e-02    8.9818210938e+04
    1.9309733063e-02    8.9811992188e+04
    1.9319957122e-02    8.9805585938e+04
    1.9329898059e-02    8.9798773438e+04
    1.9339838997e-02    8.9792632812e+04
    1.9349779934e-02    8.9786851562e+04
    1.9359722733e-02    8.9780414062e+04
    1.9369950518e-02    8.9774210938e+04
    1.9379893318e-02    8.9768648438e+04
    1.9389837980e-02    8.9762789062e+04
    1.9399780780e-02    8.9756773438e+04
    1.9409725443e-02    8.9751117188e+04
    1.9419955090e-02    8.9745437500e+04
    1.9429901615e-02    8.9739812500e+04
    1.9439848140e-02    8.9734351562e+04
[...]
    1.1513974518e-01    1.0121156250e+05
    1.1514972150e-01    1.0121156250e+05
    1.1515969783e-01    1.0121156250e+05
    1.1516997963e-01    1.0121155469e+05
    1.1517995596e-01    1.0121155469e+05
    1.1518992484e-01    1.0121155469e+05
    1.1519990116e-01    1.0121153906e+05
    1.1520987749e-01    1.0121153906e+05
    1.1521984637e-01    1.0121153906e+05
    1.1522982270e-01    1.0121153906e+05
    1.1523979902e-01    1.0121153906e+05
    1.1524976790e-01    1.0121153125e+05
    1.1525974423e-01    1.0121153125e+05
    1.1526972055e-01    1.0121153125e+05
    1.1527968943e-01    1.0121152344e+05
    1.1528997868e-01    1.0121152344e+05
    1.1529995501e-01    1.0121152344e+05
    1.1530992389e-01    1.0121152344e+05
    1.1531990021e-01    1.0121152344e+05
    1.1532987654e-01    1.0121150781e+05
    1.1533984542e-01    1.0121150781e+05
    1.1534982175e-01    1.0121150000e+05
    1.1535979807e-01    1.0121150000e+05
    1.1536976695e-01    1.0121150000e+05
    1.1537974328e-01    1.0121149219e+05
    1.1538971961e-01    1.0121149219e+05
    1.1539968848e-01    1.0121147656e+05
    1.1540997773e-01    1.0121147656e+05
    1.1541994661e-01    1.0121147656e+05
    1.1542992294e-01    1.0121147656e+05
    1.1543989927e-01    1.0121147656e+05
    1.1544986814e-01    1.0121147656e+05
    1.1545984447e-01    1.0121146875e+05
    1.1546982080e-01    1.0121146875e+05
    1.1547978967e-01    1.0121146094e+05
    1.1548976600e-01    1.0121146094e+05
    1.1549974233e-01    1.0121146094e+05
    1.1550971121e-01    1.0121146094e+05
    1.1552000046e-01    1.0121146094e+05
    1.1552996933e-01    1.0121146094e+05
    1.1553994566e-01    1.0121144531e+05
    1.1554992199e-01    1.0121144531e+05
    1.1555989087e-01    1.0121144531e+05
    1.1556986719e-01    1.0121143750e+05
    1.1557984352e-01    1.0121143750e+05
    1.1558981240e-01    1.0121143750e+05
    1.1559978873e-01    1.0121142969e+05
    1.1560976505e-01    1.0121142969e+05
    1.1561973393e-01    1.0121141406e+05
    1.1562971026e-01    1.0121141406e+05
    1.1563999951e-01    1.0121141406e+05
    1.1564996839e-01    1.0121141406e+05
    1.1565994471e-01    1.0121141406e+05
    1.1566992104e-01    1.0121140625e+05
    1.1567988992e-01    1.0121140625e+05
    1.1568986624e-01    1.0121139844e+05
    1.1569984257e-01    1.0121139844e+05
    1.1570981145e-01    1.0121139844e+05
    1.1571978778e-01    1.0121139844e+05
    1.1572976410e-01    1.0121139844e+05
    1.1573973298e-01    1.0121139844e+05
    1.1574970931e-01    1.0121139844e+05
    1.1575999111e-01    1.0121138281e+05
    1.1576996744e-01    1.0121138281e+05
    1.1577994376e-01    1.0121137500e+05
    1.1578991264e-01    1.0121136719e+05
    1.1579988897e-01    1.0121136719e+05
    1.1580986530e-01    1.0121135156e+05
    1.1581983417e-01    1.0121135156e+05
    1.1582981050e-01    1.0121135156e+05
    1.1583978683e-01    1.0121135156e+05
    1.1584975570e-01    1.0121135156e+05
    1.1585973203e-01    1.0121135156e+05
    1.1586970836e-01    1.0121134375e+05
    1.1587999016e-01    1.0121134375e+05
    1.1588996649e-01    1.0121134375e+05
    1.1589993536e-01    1.0121133594e+05
    1.1590991169e-01    1.0121133594e+05
    1.1591988802e-01    1.0121133594e+05
    1.1592985690e-01    1.0121133594e+05
    1.1593983322e-01    1.0121133594e+05
    1.1594980955e-01    1.0121132031e+05
    1.1595977843e-01    1.0121132031e+05
    1.1596975476e-01    1.0121132031e+05
    1.1597973108e-01    1.0121131250e+05
    1.1598969996e-01    1.0121131250e+05
    1.1599998921e-01    1.0121131250e+05
    1.1600996554e-01    1.0121130469e+05
    1.1601993442e-01    1.0121130469e+05
    1.1602991074e-01    1.0121128906e+05
    1.1603988707e-01    1.0121128906e+05
    1.1604985595e-01    1.0121128906e+05
    1.1605983227e-01    1.0121128125e+05
    1.1606980860e-01    1.0121128125e+05
    1.1607977748e-01    1.0121127344e+05
    1.1608975381e-01    1.0121127344e+05
    1.1609973013e-01    1.0121127344e+05
    1.1610969901e-01    1.0121127344e+05
    1.1611998826e-01    1.0121127344e+05
    1.1612995714e-01    1.0121127344e+05
    1.1613993347e-01    1.0121127344e+05
    1.1614990979e-01    1.0121127344e+05
    1.1615987867e-01    1.0121125781e+05
    1.1616985500e-01    1.0121125781e+05
    1.1617983133e-01    1.0121125000e+05
    1.1618980020e-01    1.0121125000e+05
    1.1619977653e-01    1.0121124219e+05
    1.1620975286e-01    1.0121124219e+05
    1.1621972173e-01    1.0121122656e+05
    1.1622969806e-01    1.0121122656e+05
    1.1623998731e-01    1.0121122656e+05
    1.1624995619e-01    1.0121122656e+05
    1.1625993252e-01    1.0121122656e+05
    1.1626990885e-01    1.0121122656e+05
    1.1627987772e-01    1.0121122656e+05
    1.1628985405e-01    1.0121122656e+05
    1.1629983038e-01    1.0121122656e+05
    1.1630979925e-01    1.0121122656e+05
    1.1631977558e-01    1.0121121875e+05
    1.1632975191e-01    1.0121121094e+05
    1.1633972079e-01    1.0121121094e+05
    1.1634969711e-01    1.0121121094e+05
    1.1635997891e-01    1.0121119531e+05
    1.1636995524e-01    1.0121119531e+05
    1.1637993157e-01    1.0121119531e+05
    1.1638990045e-01    1.0121118750e+05
    1.1639987677e-01    1.0121118750e+05
    1.1640985310e-01    1.0121118750e+05
    1.1641982198e-01    1.0121117969e+05
    1.1642979831e-01    1.0121117969e+05
    1.1643977463e-01    1.0121117969e+05
    1.1644974351e-01    1.0121116406e+05
    1.1645971984e-01    1.0121116406e+05
    1.1646969616e-01    1.0121116406e+05
    1.1647997797e-01    1.0121116406e+05
    1.1648995429e-01    1.0121115625e+05
    1.1649993062e-01    1.0121115625e+05
    1.1650989950e-01    1.0121115625e+05
    1.1651987582e-01    1.0121115625e+05
    1.1652985215e-01    1.0121115625e+05
    1.1653982103e-01    1.0121115625e+05
    1.1654979736e-01    1.0121115625e+05
    1.1655977368e-01    1.0121114844e+05
    1.1656974256e-01    1.0121114844e+05
    1.1657971889e-01    1.0121114844e+05
    1.1658969522e-01    1.0121114844e+05
    1.1659997702e-01    1.0121114844e+05
    1.1660995334e-01    1.0121114844e+05
    1.1661992967e-01    1.0121113281e+05
    1.1662989855e-01    1.0121113281e+05
    1.1663987488e-01    1.0121112500e+05
    1.1664985120e-01    1.0121112500e+05
    1.1665982008e-01    1.0121111719e+05
    1.1666979641e-01    1.0121110156e+05
    1.1667977273e-01    1.0121110156e+05
    1.1668974161e-01    1.0121110156e+05
    1.1669971794e-01    1.0121110156e+05
    1.1670969427e-01    1.0121110156e+05
    1.1671997607e-01    1.0121109375e+05
    1.1672995239e-01    1.0121109375e+05
    1.1673992127e-01    1.0121109375e+05
    1.1674989760e-01    1.0121109375e+05
    1.1675987393e-01    1.0121108594e+05
    1.1676984280e-01    1.0121108594e+05
    1.1677981913e-01    1.0121108594e+05
    1.1678979546e-01    1.0121108594e+05
    1.1679976434e-01    1.0121108594e+05
    1.1680974066e-01    1.0121107031e+05
    1.1681971699e-01    1.0121107031e+05
    1.1682968587e-01    1.0121107031e+05
    1.1683997512e-01    1.0121106250e+05
    1.1684995145e-01    1.0121106250e+05
    1.1685992032e-01    1.0121106250e+05
    1.1686989665e-01    1.0121105469e+05
    1.1687987298e-01    1.0121105469e+05
    1.1688984185e-01    1.0121105469e+05
    1.1689981818e-01    1.0121103906e+05
    1.1690979451e-01    1.0121103906e+05
    1.1691976339e-01    1.0121103906e+05
    1.1692973971e-01    1.0121103906e+05
    1.1693971604e-01    1.0121103906e+05
    1.1694999784e-01    1.0121103125e+05
    1.1695997417e-01    1.0121103125e+05
    1.1696995050e-01    1.0121103125e+05
    1.1697991937e-01    1.0121102344e+05
    1.1698989570e-01    1.0121102344e+05
    1.1699987203e-01    1.0121102344e+05
    1.1700984091e-01    1.0121102344e+05
    1.1701981723e-01    1.0121102344e+05
    1.1702979356e-01    1.0121100781e+05
    1.1703976244e-01    1.0121100781e+05
    1.1704973876e-01    1.0121100781e+05
    1.1705971509e-01    1.0121100000e+05
    1.1706999689e-01    1.0121100000e+05
    1.1707997322e-01    1.0121100000e+05
    1.1708994210e-01    1.0121099219e+05
    1.1709991843e-01    1.0121099219e+05
    1.1710989475e-01    1.0121099219e+05
    1.1711986363e-01    1.0121097656e+05
    1.1712983996e-01    1.0121097656e+05
    1.1713981628e-01    1.0121097656e+05
    1.1714978516e-01    1.0121097656e+05
    1.1715976149e-01    1.0121097656e+05
    1.1716973782e-01    1.0121096875e+05
    1.1717970669e-01    1.0121096875e+05
    1.1718999594e-01    1.0121096875e+05
    1.1719997227e-01    1.0121096094e+05
    1.1720994115e-01    1.0121096094e+05
    1.1721991748e-01    1.0121096094e+05
    1.1722989380e-01    1.0121096094e+05
    1.1723986268e-01    1.0121096094e+05
    1.1724983901e-01    1.0121094531e+05
    1.1725981534e-01    1.0121094531e+05
    1.1726978421e-01    1.0121094531e+05
    1.1727976054e-01    1.0121093750e+05
    1.1728973687e-01    1.0121093750e+05
    1.1729970574e-01    1.0121093750e+05
    1.1730999500e-01    1.0121092969e+05
    1.1731997132e-01    1.0121092969e+05
    1.1732994020e-01    1.0121092969e+05
    1.1733991653e-01    1.0121091406e+05
    1.1734989285e-01    1.0121091406e+05
    1.1735986173e-01    1.0121091406e+05
    1.1736983806e-01    1.0121091406e+05
    1.1737981439e-01    1.0121091406e+05
    1.1738978326e-01    1.0121090625e+05
    1.1739975959e-01    1.0121090625e+05
    1.1740973592e-01    1.0121090625e+05
    1.1741970479e-01    1.0121089844e+05
    1.1742999405e-01    1.0121089844e+05
    1.1743996292e-01    1.0121089844e+05
    1.1744993925e-01    1.0121089844e+05
    1.1745991558e-01    1.0121089844e+05
    1.1746988446e-01    1.0121089844e+05
    1.1747986078e-01    1.0121088281e+05
    1.1748983711e-01    1.0121088281e+05
    1.1749980599e-01    1.0121087500e+05
    1.1750978231e-01    1.0121087500e+05
    1.1751975864e-01    1.0121087500e+05
    1.1752973497e-01    1.0121086719e+05
    1.1753970385e-01    1.0121086719e+05
    1.1754999310e-01    1.0121086719e+05
    1.1755996197e-01    1.0121085156e+05
    1.1756993830e-01    1.0121085156e+05
    1.1757991463e-01    1.0121085156e+05
    1.1758988351e-01    1.0121085156e+05
    1.1759985983e-01    1.0121085156e+05
    1.1760983616e-01    1.0121084375e+05
    1.1761980504e-01    1.0121084375e+05
    1.1762978137e-01    1.0121084375e+05
    1.1763975769e-01    1.0121083594e+05
    1.1764972657e-01    1.0121083594e+05
    1.1765970290e-01    1.0121083594e+05
    1.1766999215e-01    1.0121083594e+05
    1.1767996103e-01    1.0121083594e+05
    1.1768993735e-01    1.0121083594e+05
    1.1769991368e-01    1.0121082031e+05
    1.1770988256e-01    1.0121082031e+05
    1.1771985888e-01    1.0121081250e+05
    1.1772983521e-01    1.0121081250e+05
    1.1773980409e-01    1.0121081250e+05
    1.1774978042e-01    1.0121080469e+05
    1.1775975674e-01    1.0121080469e+05
    1.1776972562e-01    1.0121080469e+05
    1.1777970195e-01    1.0121078906e+05
    1.1778998375e-01    1.0121078906e+05
    1.1779996008e-01    1.0121078906e+05
    1.1780993640e-01    1.0121078906e+05
    1.1781990528e-01    1.0121078906e+05
    1.1782988161e-01    1.0121078906e+05
    1.1783985794e-01    1.0121078125e+05
    1.1784983426e-01    1.0121078125e+05
    1.1785980314e-01    1.0121077344e+05
    1.1786977947e-01    1.0121077344e+05
    1.1787975580e-01    1.0121077344e+05
    1.1788972467e-01    1.0121077344e+05
    1.1789970100e-01    1.0121077344e+05
    1.1790998280e-01    1.0121075781e+05
    1.1791995913e-01    1.0121075781e+05
    1.1792993546e-01    1.0121075781e+05
    1.1793990433e-01    1.0121075781e+05
    1.1794988066e-01    1.0121075000e+05
    1.1795985699e-01    1.0121075000e+05
    1.1796982586e-01    1.0121075000e+05
    1.1797980219e-01    1.0121074219e+05
    1.1798977852e-01    1.0121074219e+05
    1.1799974740e-01    1.0121072656e+05
    1.1800972372e-01    1.0121072656e+05
    1.1801970005e-01    1.0121072656e+05
    1.1802998185e-01    1.0121072656e+05
    1.1803995818e-01    1.0121072656e+05
    1.1804993451e-01    1.0121072656e+05
    1.1805990338e-01    1.0121071875e+05
    1.1806987971e-01    1.0121071875e+05
    1.1807985604e-01    1.0121071875e+05
    1.1808982491e-01    1.0121071875e+05
    1.1809980124e-01    1.0121071094e+05
    1.1810977757e-01    1.0121071094e+05
    1.1811974645e-01    1.0121071094e+05
    1.1812972277e-01    1.0121071094e+05
    1.1813969910e-01    1.0121071094e+05
    1.1814998090e-01    1.0121071094e+05
    1.1815995723e-01    1.0121069531e+05
    1.1816993356e-01    1.0121069531e+05
    1.1817990243e-01    1.0121068750e+05
    1.1818987876e-01    1.0121068750e+05
    1.1819985509e-01    1.0121068750e+05
    1.1820982397e-01    1.0121067969e+05
    1.1821980029e-01    1.0121067969e+05
    1.1822977662e-01    1.0121066406e+05
    1.1823974550e-01    1.0121066406e+05
    1.1824972183e-01    1.0121066406e+05
    1.1825969815e-01    1.0121066406e+05
    1.1826997995e-01    1.0121066406e+05
    1.1827995628e-01    1.0121066406e+05
    1.1828992516e-01    1.0121065625e+05
    1.1829990149e-01    1.0121065625e+05
    1.1830987781e-01    1.0121065625e+05
    1.1831984669e-01    1.0121064844e+05
    1.1832982302e-01    1.0121064844e+05
    1.1833979934e-01    1.0121064844e+05
    1.1834976822e-01    1.0121064844e+05
    1.1835974455e-01    1.0121064844e+05
    1.1836972088e-01    1.0121064844e+05
    1.1837968975e-01    1.0121063281e+05
    1.1838997900e-01    1.0121063281e+05
    1.1839995533e-01    1.0121063281e+05
    1.1840992421e-01    1.0121062500e+05
    1.1841990054e-01    1.0121062500e+05
    1.1842987686e-01    1.0121062500e+05
    1.1843984574e-01    1.0121061719e+05
    1.1844982207e-01    1.0121061719e+05
    1.1845979840e-01    1.0121061719e+05
    1.1846976727e-01    1.0121060156e+05
    1.1847974360e-01    1.0121060156e+05
    1.1848971993e-01    1.0121060156e+05
    1.1849968880e-01    1.0121060156e+05
    1.1850997806e-01    1.0121060156e+05
    1.1851995438e-01    1.0121059375e+05
    1.1852992326e-01    1.0121059375e+05
    1.1853989959e-01    1.0121059375e+05
    1.1854987592e-01    1.0121058594e+05
    1.1855984479e-01    1.0121058594e+05
    1.1856982112e-01    1.0121058594e+05
    1.1857979745e-01    1.0121058594e+05
    1.1858976632e-01    1.0121058594e+05
    1.1859974265e-01    1.0121058594e+05
    1.1860971898e-01    1.0121057031e+05
    1.1861968786e-01    1.0121057031e+05
    1.1862997711e-01    1.0121057031e+05
    1.1863994598e-01    1.0121056250e+05
    1.1864992231e-01    1.0121056250e+05
    1.1865989864e-01    1.0121056250e+05
    1.1866986752e-01    1.0121055469e+05
    1.1867984384e-01    1.0121055469e+05
    1.1868982017e-01    1.0121053906e+05
    1.1869978905e-01    1.0121053906e+05
    1.1870976537e-01    1.0121053906e+05
    1.1871974170e-01    1.0121053906e+05
    1.1872971058e-01    1.0121053906e+05
    1.1873999983e-01    1.0121053906e+05
    1.1874997616e-01    1.0121053906e+05
    1.1875994503e-01    1.0121053125e+05
    1.1876992136e-01    1.0121053125e+05
    1.1877989769e-01    1.0121053125e+05
    1.1878986657e-01    1.0121052344e+05
    1.1879984289e-01    1.0121052344e+05
    1.1880981922e-01    1.0121052344e+05
    1.1881978810e-01    1.0121052344e+05
    1.1882976443e-01    1.0121052344e+05
    1.1883974075e-01    1.0121050781e+05
    1.1884970963e-01    1.0121050781e+05
    1.1885999888e-01    1.0121050781e+05
    1.1886997521e-01    1.0121050000e+05
    1.1887994409e-01    1.0121050000e+05
    1.1888992041e-01    1.0121050000e+05
    1.1889989674e-01    1.0121049219e+05
    1.1890986562e-01    1.0121049219e+05
    1.1891984195e-01    1.0121049219e+05
    1.1892981827e-01    1.0121047656e+05
    1.1893978715e-01    1.0121047656e+05
    1.1894976348e-01    1.0121047656e+05
    1.1895973980e-01    1.0121047656e+05
    1.1896970868e-01    1.0121047656e+05
    1.1897999793e-01    1.0121047656e+05
    1.1898996681e-01    1.0121046875e+05
    1.1899994314e-01    1.0121046875e+05
    1.1900991946e-01    1.0121046875e+05
    1.1901989579e-01    1.0121046094e+05
    1.1902986467e-01    1.0121046094e+05
    1.1903984100e-01    1.0121046094e+05
    1.1904981732e-01    1.0121046094e+05
    1.1905978620e-01    1.0121046094e+05
    1.1906976253e-01    1.0121046094e+05
    1.1907973886e-01    1.0121044531e+05
    1.1908970773e-01    1.0121044531e+05
    1.1909999698e-01    1.0121044531e+05
    1.1910996586e-01    1.0121043750e+05
    1.1911994219e-01    1.0121043750e+05
    1.1912991852e-01    1.0121043750e+05
    1.1913988739e-01    1.0121042969e+05
    1.1914986372e-01    1.0121042969e+05
    1.1915984005e-01    1.0121042969e+05
    1.1916980892e-01    1.0121041406e+05
    1.1917978525e-01    1.0121041406e+05
    1.1918976158e-01    1.0121041406e+05
    1.1919973046e-01    1.0121041406e+05
    1.1920970678e-01    1.0121041406e+05
    1.1921999604e-01    1.0121040625e+05
    1.1922996491e-01    1.0121040625e+05
    1.1923994124e-01    1.0121040625e+05
    1.1924991757e-01    1.0121040625e+05
    1.1925988644e-01    1.0121039844e+05
    1.1926986277e-01    1.0121039844e+05
    1.1927983910e-01    1.0121039844e+05
    1.1928980798e-01    1.0121039844e+05
    1.1929978430e-01    1.0121039844e+05
    1.1930976063e-01    1.0121039844e+05
    1.1931972951e-01    1.0121038281e+05
    1.1932970583e-01    1.0121038281e+05
    1.1933999509e-01    1.0121038281e+05
    1.1934996396e-01    1.0121037500e+05
    1.1935994029e-01    1.0121037500e+05
    1.1936991662e-01    1.0121037500e+05
    1.1937988549e-01    1.0121037500e+05
    1.1938986182e-01    1.0121036719e+05
    1.1939983815e-01    1.0121036719e+05
    1.1940980703e-01    1.0121036719e+05
    1.1941978335e-01    1.0121035156e+05
    1.1942975968e-01    1.0121035156e+05
    1.1943972856e-01    1.0121035156e+05
    1.1944970489e-01    1.0121035156e+05
    1.1945998669e-01    1.0121035156e+05
    1.1946996301e-01    1.0121035156e+05
    1.1947993934e-01    1.0121034375e+05
    1.1948990822e-01    1.0121034375e+05
    1.1949988455e-01    1.0121033594e+05
    1.1950986087e-01    1.0121033594e+05
    1.1951983720e-01    1.0121033594e+05
    1.1952980608e-01    1.0121033594e+05
    1.1953978240e-01    1.0121032031e+05
    1.1954975873e-01    1.0121032031e+05
    1.1955972761e-01    1.0121032031e+05
    1.1956970394e-01    1.0121031250e+05
    1.1957998574e-01    1.0121031250e+05
    1.1958996207e-01    1.0121031250e+05
    1.1959993839e-01    1.0121031250e+05
    1.1960990727e-01    1.0121031250e+05
    1.1961988360e-01    1.0121030469e+05
    1.1962985992e-01    1.0121030469e+05
    1.1963982880e-01    1.0121030469e+05
    1.1964980513e-01    1.0121028906e+05
    1.1965978146e-01    1.0121028906e+05
    1.1966975033e-01    1.0121028906e+05
    1.1967972666e-01    1.0121028906e+05
    1.1968970299e-01    1.0121028906e+05
    1.1969998479e-01    1.0121028125e+05
    1.1970996112e-01    1.0121028125e+05
    1.1971993744e-01    1.0121027344e+05
    1.1972990632e-01    1.0121027344e+05
    1.1973988265e-01    1.0121027344e+05
    1.1974985898e-01    1.0121027344e+05
    1.1975982785e-01    1.0121027344e+05
    1.1976980418e-01    1.0121027344e+05
    1.1977978051e-01    1.0121027344e+05
    1.1978974938e-01    1.0121027344e+05
    1.1979972571e-01    1.0121025781e+05
    1.1980970204e-01    1.0121025000e+05
    1.1981998384e-01    1.0121025000e+05
    1.1982996017e-01    1.0121024219e+05
    1.1983993649e-01    1.0121022656e+05
    1.1984990537e-01    1.0121022656e+05
    1.1985988170e-01    1.0121022656e+05
    1.1986985803e-01    1.0121022656e+05
    1.1987982690e-01    1.0121022656e+05
    1.1988980323e-01    1.0121022656e+05
    1.1989977956e-01    1.0121022656e+05
    1.1990974844e-01    1.0121022656e+05
    1.1991972476e-01    1.0121022656e+05
    1.1992970109e-01    1.0121021875e+05
    1.1993998289e-01    1.0121021875e+05
    1.1994995922e-01    1.0121021094e+05
    1.1995993555e-01    1.0121021094e+05
    1.1996990442e-01    1.0121021094e+05
    1.1997988075e-01    1.0121021094e+05
    1.1998985708e-01    1.0121021094e+05
    1.1999982595e-01    1.0121021094e+05
endcurve
